Version 4
SHEET 1 880 680
FLAG 128 160 iclk
IOPIN 128 160 In
FLAG 128 240 0
FLAG 224 160 0
FLAG 240 208 oclk
IOPIN 240 208 Out
FLAG 128 208 dis
IOPIN 128 208 In
SYMBOL Digital\\srflop 176 112 R0
WINDOW 3 -83 161 Left 2
SYMATTR Value cycles={k}
SYMATTR InstName A1
SYMATTR SpiceModel Counter
TEXT 104 296 Left 2 !.param k=2
