Version 4
SHEET 1 880 964
WIRE -144 192 -224 192
WIRE 32 208 -80 208
WIRE -208 224 -224 224
WIRE 32 224 0 224
WIRE 32 240 16 240
WIRE 16 256 16 240
WIRE 32 256 16 256
WIRE 16 272 16 256
WIRE 32 272 16 272
WIRE -208 288 -208 224
WIRE 16 288 16 272
WIRE 32 288 16 288
WIRE 48 288 48 272
WIRE 48 288 32 288
WIRE -208 304 -288 304
WIRE -208 320 -224 320
WIRE 0 320 0 224
WIRE 0 320 -80 320
WIRE -224 336 -224 320
WIRE -208 336 -224 336
WIRE -224 352 -224 336
WIRE -208 352 -224 352
WIRE -224 368 -224 352
WIRE -208 368 -224 368
WIRE -192 368 -192 352
WIRE -192 368 -208 368
FLAG -288 208 i[0]
IOPIN -288 208 In
FLAG -288 304 i[1]
IOPIN -288 304 In
FLAG 96 256 0
FLAG 32 288 0
FLAG -144 336 0
FLAG -208 368 0
FLAG -80 176 o[0]
IOPIN -80 176 Out
FLAG 96 224 o[1]
IOPIN 96 224 Out
FLAG -80 288 o[2]
IOPIN -80 288 Out
SYMBOL Digital\\and 64 176 R0
SYMATTR InstName A1
SYMBOL Digital\\and -176 256 R0
WINDOW 0 -22 17 Left 2
SYMATTR InstName A3
SYMBOL dead-time-gen-fast -256 208 R0
WINDOW 39 -1 46 Bottom 0
SYMATTR SpiceLine tau={tau1}
SYMATTR InstName X1
SYMBOL dead-time-gen-fast -112 304 R0
WINDOW 39 14 44 Bottom 0
SYMATTR SpiceLine tau={tau3}
SYMATTR InstName X2
SYMBOL dead-time-gen-fast -112 192 R0
WINDOW 39 -1 46 Bottom 0
SYMATTR SpiceLine tau={tau2}
SYMATTR InstName X3
TEXT -304 136 Left 2 !.param tau1=1.2n tau2=tau1 tau3=tau1
