Version 4
SHEET 1 880 680
WIRE 16 160 -16 160
WIRE 272 160 176 160
WIRE 368 160 272 160
WIRE 368 192 336 192
WIRE -16 272 -16 160
WIRE 336 272 336 192
WIRE 336 272 -16 272
WIRE 528 272 336 272
FLAG 272 160 uncertain[2:0]
FLAG 16 128 i[2:0]
IOPIN 16 128 In
FLAG 528 192 o[2:0]
IOPIN 528 192 Out
FLAG 16 192 0
FLAG 368 224 0
FLAG 528 272 clk
IOPIN 528 272 In
SYMBOL dbuf_3bit 96 160 R0
SYMATTR InstName X1
SYMBOL dbuf_3bit 448 192 R0
SYMATTR InstName X2
TEXT 32 296 Left 2 ;Clk1 domain
TEXT 328 296 Left 2 ;Clk 2 domain
LINE Normal 240 320 240 80 2
