Version 4
SHEET 1 880 680
WIRE 80 48 16 48
WIRE 16 64 16 48
WIRE 80 192 16 192
WIRE 16 208 16 192
FLAG 16 144 0
FLAG 16 48 in
FLAG 112 48 clk
FLAG 16 288 0
FLAG 16 192 in2
FLAG 112 192 clk2
SYMBOL voltage 16 48 M0
WINDOW 123 0 0 Left 0
WINDOW 39 0 0 Left 0
SYMATTR InstName V1
SYMATTR Value PULSE(-1 2 2m 10m 1u 1)
SYMBOL vco 96 48 R0
SYMATTR InstName X1
SYMATTR Value f0 = {f0} f1 = {f1}
SYMBOL voltage 16 192 M0
WINDOW 123 0 0 Left 0
WINDOW 39 0 0 Left 0
SYMATTR InstName V2
SYMATTR Value PULSE(0 2 2m 10m 1u 1)
SYMBOL vco 96 192 R0
SYMATTR InstName X2
SYMATTR Value f0 = {f0} f1 = {f1}
TEXT -296 104 Left 2 !.param f0 = 0 f1 = 10k
TEXT -296 80 Left 2 !.tran 0 15m 0 1n
