Version 4
SHEET 1 880 680
WIRE -96 176 -144 176
WIRE -96 192 -128 192
WIRE 16 192 -32 192
WIRE 288 192 208 192
WIRE -128 208 -128 192
WIRE -128 208 -144 208
WIRE -96 208 -112 208
WIRE 288 208 272 208
WIRE -112 224 -112 208
WIRE -96 224 -112 224
WIRE 272 224 272 208
WIRE 288 224 272 224
WIRE -112 240 -112 224
WIRE -96 240 -112 240
WIRE 16 240 -16 240
WIRE 272 240 272 224
WIRE 288 240 272 240
WIRE -112 256 -112 240
WIRE -96 256 -112 256
WIRE -80 256 -80 240
WIRE -80 256 -96 256
WIRE 272 256 272 240
WIRE 288 256 272 256
WIRE 304 256 304 240
WIRE 304 256 288 256
WIRE -128 288 -128 208
WIRE -16 288 -16 240
WIRE -16 288 -128 288
FLAG -144 176 start
IOPIN -144 176 In
FLAG -144 208 rst
IOPIN -144 208 In
FLAG 16 272 0
FLAG 128 240 0
FLAG 352 192 tmo
IOPIN 352 192 Out
FLAG -96 256 0
FLAG 288 256 0
FLAG 352 224 0
FLAG 288 176 en
IOPIN 288 176 In
FLAG -32 224 0
SYMBOL delay 160 192 R0
WINDOW 39 32 43 Bottom 2
SYMATTR SpiceLine tdr={per}
SYMATTR InstName X2
SYMBOL Digital\\srflop 64 144 R0
WINDOW 3 -4 2 Left 2
SYMATTR Value td=2n
SYMATTR InstName A1
SYMBOL Digital\\or -64 144 R0
WINDOW 3 -12 63 Left 0
SYMATTR Value td=2n
SYMATTR InstName A2
SYMBOL Digital\\and 320 144 R0
SYMATTR InstName A3
TEXT 40 288 Left 2 !.param per=10u
