Version 4
SHEET 1 880 680
WIRE -80 176 -128 176
WIRE -80 192 -112 192
WIRE 16 192 -16 192
WIRE -112 208 -112 192
WIRE -112 208 -128 208
WIRE -80 208 -96 208
WIRE -96 224 -96 208
WIRE -80 224 -96 224
WIRE -96 240 -96 224
WIRE -80 240 -96 240
WIRE 16 240 -16 240
WIRE -96 256 -96 240
WIRE -80 256 -96 256
WIRE -64 256 -64 240
WIRE -64 256 -80 256
WIRE -112 288 -112 208
WIRE -16 288 -16 240
WIRE -16 288 -112 288
FLAG -128 176 start
IOPIN -128 176 In
FLAG -128 208 rst
IOPIN -128 208 In
FLAG 16 272 0
FLAG 128 240 0
FLAG 208 192 tmo
IOPIN 208 192 Out
FLAG -16 224 0
FLAG -80 256 0
SYMBOL delay 160 192 R0
WINDOW 39 32 43 Bottom 2
SYMATTR SpiceLine tdr={per}
SYMATTR InstName X2
SYMBOL Digital\\srflop 64 144 R0
SYMATTR InstName A1
SYMBOL Digital\\or -48 144 R0
WINDOW 3 -12 63 Left 0
SYMATTR Value td=2n
SYMATTR InstName A2
TEXT 40 288 Left 2 !.param per=10u
