Version 4
SHEET 1 880 680
WIRE 128 32 112 32
WIRE 336 32 224 32
WIRE 480 32 400 32
WIRE 112 112 112 32
WIRE 224 112 112 112
WIRE 224 128 96 128
WIRE 480 128 480 32
WIRE 480 128 288 128
WIRE 224 144 208 144
WIRE 208 160 208 144
WIRE 224 160 208 160
WIRE 208 176 208 160
WIRE 224 176 208 176
WIRE 208 192 208 176
WIRE 224 192 208 192
WIRE 240 192 240 176
WIRE 240 192 224 192
FLAG 224 192 0
FLAG 288 160 0
FLAG 32 128 I
IOPIN 32 128 In
FLAG 480 128 O
IOPIN 480 128 Out
SYMBOL oneshot 64 128 R0
WINDOW 39 0 38 Bottom 1
SYMATTR SpiceLine ton={ton0}
SYMATTR InstName X1
SYMBOL oneshot 368 32 M0
WINDOW 39 0 38 Bottom 1
SYMATTR SpiceLine ton={ton0+td+ton1}
SYMATTR InstName X2
SYMBOL delay 176 32 M0
WINDOW 0 0 -16 Bottom 1
WINDOW 39 -2 37 Bottom 1
SYMATTR InstName X3
SYMATTR SpiceLine tdr={ton0+td}
SYMBOL Digital\\or 256 80 R0
SYMATTR InstName A1
TEXT -24 224 Left 2 !.param ton=10n ton0=ton ton1=ton td=10n
