Version 4
SHEET 1 880 680
WIRE 160 128 128 128
WIRE 192 128 160 128
FLAG -16 192 0
FLAG 160 128 sinu
FLAG 256 128 clk
IOPIN 256 128 Out
FLAG 192 144 0
FLAG -16 96 in
IOPIN -16 96 In
SYMBOL SpecialFunctions\\modulate -16 96 R0
WINDOW 3 20 117 Left 1
SYMATTR Value space = {f0} mark = {f1}
SYMATTR InstName A1
SYMBOL Digital\\buf1 192 64 R0
WINDOW 3 -73 113 Left 1
SYMATTR InstName A2
SYMATTR Value Vt = 0 Vh = 10m trise = {tr} tfall = {tf}
TEXT -16 248 Left 2 !.param f0 = 0 f1 = 1k\n.param tr = 10n tf = tr
