Version 4
SHEET 1 880 680
WIRE 176 -224 112 -224
WIRE 112 -176 112 -224
WIRE 176 -176 112 -176
WIRE 112 -128 112 -176
WIRE 176 -128 112 -128
WIRE 112 -80 112 -128
WIRE 176 -80 112 -80
WIRE 112 -32 112 -80
WIRE 176 -32 112 -32
WIRE 112 -16 112 -32
FLAG 208 -32 o[0]
IOPIN 208 -32 Out
FLAG 64 0 x
IOPIN 64 0 In
FLAG 64 48 0
FLAG 112 64 0
FLAG 208 -80 o[1]
IOPIN 208 -80 Out
FLAG 208 -128 o[2]
IOPIN 208 -128 Out
FLAG 208 -176 o[3]
IOPIN 208 -176 Out
FLAG 208 -224 o[4]
IOPIN 208 -224 Out
SYMBOL adc_bit_extract 192 -32 R0
WINDOW 39 0 19 Bottom 0
SYMATTR InstName X1
SYMATTR SpiceLine e=0
SYMBOL e 112 -32 R0
SYMATTR InstName E1
SYMATTR Value {32/ref}
SYMBOL adc_bit_extract 192 -80 R0
WINDOW 39 0 19 Bottom 0
SYMATTR InstName X2
SYMATTR SpiceLine e=1
SYMBOL adc_bit_extract 192 -128 R0
WINDOW 39 0 19 Bottom 0
SYMATTR InstName X3
SYMATTR SpiceLine e=2
SYMBOL adc_bit_extract 192 -176 R0
WINDOW 39 0 19 Bottom 0
SYMATTR InstName X4
SYMATTR SpiceLine e=3
SYMBOL adc_bit_extract 192 -224 R0
WINDOW 39 0 19 Bottom 0
SYMATTR InstName X5
SYMATTR SpiceLine e=4
TEXT 160 24 Left 1 !.param ref=32
