Version 4
SHEET 1 880 680
FLAG 256 208 o
IOPIN 256 208 Out
FLAG 176 208 0
FLAG 128 208 0
FLAG 128 128 x
IOPIN 128 128 In
FLAG 256 112 raw
FLAG 176 112 0
SYMBOL bi 176 208 R270
WINDOW 0 32 40 VTop 2
WINDOW 3 -32 65 Invisible 2
SYMATTR InstName B1
SYMATTR Value I=V(raw)-int(V(raw)/radix)*radix
SYMATTR Value2 Rpar=1
SYMBOL res 144 112 M0
SYMATTR InstName R1
SYMATTR Value 10Meg
SYMBOL bi 176 112 R270
WINDOW 0 32 40 VTop 2
WINDOW 3 -32 65 Invisible 2
SYMATTR InstName B2
SYMATTR Value I=int(V(x)/d)
SYMATTR Value2 Rpar=1
TEXT 152 256 Left 1 !.param e=0 radix=2\n.param d=radix**e
