Version 4
SHEET 1 880 680
FLAG 16 -64 X
IOPIN 16 -64 In
FLAG 16 -32 Y
IOPIN 16 -32 In
FLAG 96 -48 O
IOPIN 96 -48 Out
FLAG -16 0 Y
IOPIN -16 0 In
FLAG -16 32 X
IOPIN -16 32 In
FLAG -16 48 0
FLAG 48 32 0
SYMBOL amux-2to1 48 -32 R0
SYMATTR InstName X3
SYMBOL Digital\\diffschmitt -16 -48 R0
WINDOW 0 32 64 Center 1
WINDOW 3 20 103 Left 0
SYMATTR InstName A1
SYMATTR Value Vt={Vt} Vh={Vh} td={td}
TEXT -48 80 Left 1 !.param Vt=0 Vh=2m td=21n
