Version 4
SHEET 1 880 680
WIRE 208 144 192 144
WIRE 208 160 192 160
WIRE 208 176 192 176
WIRE 128 192 96 192
WIRE 192 192 192 176
WIRE 208 192 192 192
WIRE 192 208 192 192
WIRE 208 208 192 208
WIRE 192 224 192 208
WIRE 208 224 192 224
WIRE 224 224 224 208
WIRE 224 224 208 224
FLAG 272 192 0
FLAG 208 224 0
FLAG 16 192 0
FLAG 128 160 x
IOPIN 128 160 In
FLAG 192 144 e
IOPIN 192 144 In
FLAG 240 96 0
FLAG 240 128 x
IOPIN 240 128 In
FLAG 320 112 o
IOPIN 320 112 Out
FLAG 128 208 0
SYMBOL Digital\\and 240 112 R0
WINDOW 0 -22 63 Left 2
SYMATTR InstName A1
SYMBOL amux-2to1 272 128 R0
SYMATTR InstName X3
SYMBOL Digital\\diffschmitt 128 112 R0
WINDOW 0 24 63 Left 1
WINDOW 3 -43 119 Left 0
SYMATTR InstName A2
SYMATTR Value Vt=0 Vh=2m td={td}
SYMBOL voltage 112 192 R90
WINDOW 0 -32 56 VBottom 2
WINDOW 3 32 56 VTop 0
SYMATTR InstName V1
SYMATTR Value {zx}
TEXT 48 96 Left 1 !.param zx=0 td=21n
