Version 4
SHEET 1 880 680
WIRE -176 -208 -176 -240
WIRE -160 -208 -176 -208
WIRE -224 -192 -256 -192
WIRE -160 -176 -176 -176
WIRE -176 -144 -176 -176
WIRE -224 -96 -256 -96
FLAG -256 -192 c[0]
IOPIN -256 -192 In
FLAG -256 -256 X[0]
IOPIN -256 -256 In
FLAG -256 -224 X[1]
IOPIN -256 -224 In
FLAG -256 -96 c[0]
IOPIN -256 -96 In
FLAG -256 -160 X[2]
IOPIN -256 -160 In
FLAG -256 -128 X[3]
IOPIN -256 -128 In
FLAG -128 -144 c[1]
IOPIN -128 -144 In
FLAG -80 -192 O
IOPIN -80 -192 Out
SYMBOL amux-2to1 -224 -224 R0
SYMATTR InstName X4
SYMBOL amux-2to1 -224 -128 R0
SYMATTR InstName X5
SYMBOL amux-2to1 -128 -176 R0
SYMATTR InstName X6
