Version 4
SHEET 1 880 680
FLAG 256 80 out
IOPIN 256 80 Out
FLAG 256 112 _out
IOPIN 256 112 Out
FLAG 192 112 -
IOPIN 192 112 In
FLAG 192 80 +
IOPIN 192 80 In
FLAG 192 128 0
SYMBOL Digital\\diffschmitt 192 32 R0
WINDOW 3 21 104 Left 0
SYMATTR Value td={td} Vh={chys} Vt={cth}
SYMATTR InstName A1
TEXT 208 152 Left 0 !.param th=0 hys=1m td=21n\n.param chys=hys/2 cth=th+chys
