Version 4
SHEET 1 880 680
FLAG 224 -48 o
IOPIN 224 -48 Out
FLAG 224 32 0
FLAG -32 -64 in[31:16]
IOPIN -32 -64 In
FLAG -32 0 in[15:0]
IOPIN -32 0 In
FLAG 112 -64 msb
FLAG 112 0 lsb
SYMBOL bi 224 32 R180
WINDOW 0 24 80 Left 2
WINDOW 3 24 0 Invisible 0
SYMATTR InstName B1
SYMATTR Value I=V(msb)*{msb_factor}+V(lsb)
SYMATTR Value2 Rpar={ref/range}
SYMBOL dac-16bit-fast 32 -64 R0
SYMATTR InstName X1
SYMBOL dac-16bit-fast 32 0 R0
SYMATTR InstName X2
TEXT -120 56 Left 1 !.param ref=range\n.param range=2**32 msb_factor=2**16
