Version 4
SHEET 1 880 680
FLAG 224 -48 o
IOPIN 224 -48 Out
FLAG 224 32 0
FLAG -16 -16 in[3:0]
IOPIN -16 -16 In
FLAG 128 -16 raw
SYMBOL bi 224 32 R180
WINDOW 0 24 80 Left 2
WINDOW 3 24 0 Invisible 0
SYMATTR InstName B1
SYMATTR Value I=IF(V(in[4]),V(raw)-16,V(raw))
SYMATTR Value2 Rpar={ref/32}
SYMBOL dac-4bit-fast 48 -16 R0
SYMATTR InstName X1
TEXT 176 64 Left 1 !.param ref=32
