Version 4
SHEET 1 880 680
FLAG 224 -48 o
IOPIN 224 -48 Out
FLAG 224 32 0
SYMBOL bi 224 32 R180
WINDOW 0 24 80 Left 2
WINDOW 3 24 0 Left 1
SYMATTR InstName B1
SYMATTR Value I=4*V(in[2])+2*V(in[1])+V(in[0])
SYMATTR Value2 Rpar={ref/8}
TEXT 32 0 Left 1 !.param ref=8
