Version 4
SHEET 1 880 680
WIRE 48 -96 48 -112
WIRE 224 -96 48 -96
WIRE 48 -80 48 -96
WIRE -112 0 -128 0
WIRE 48 16 48 0
WIRE 80 16 48 16
WIRE 48 32 48 16
WIRE 224 48 224 -96
WIRE 80 112 80 16
WIRE 48 192 48 176
WIRE 64 192 48 192
WIRE 80 192 80 176
WIRE 80 192 64 192
WIRE 224 192 224 112
WIRE 224 192 80 192
WIRE 64 208 64 192
FLAG 48 -112 +
IOPIN 48 -112 BiDir
FLAG -64 -16 x
FLAG -224 0 photon
IOPIN -224 0 In
FLAG 64 208 -
IOPIN 64 208 BiDir
FLAG -64 64 0
FLAG -112 48 0
FLAG -224 80 0
FLAG -288 80 0
FLAG -288 32 +
IOPIN -288 32 BiDir
FLAG -288 64 -
IOPIN -288 64 BiDir
SYMBOL diode 64 112 M0
SYMATTR InstName D1
SYMATTR Value active
SYMBOL diode 64 112 R0
SYMATTR InstName D2
SYMATTR Value inactive
SYMBOL res 64 16 M0
WINDOW 3 36 76 Left 1
SYMATTR Value R=100Meg/(MAX(0,V(x))+1)
SYMATTR InstName R1
SYMBOL res 32 -96 R0
SYMATTR InstName R2
SYMATTR Value {ronfwd/2}
SYMBOL e -64 -32 R0
SYMATTR InstName E1
SYMATTR Value 1G
SYMBOL Digital\\diffschmtbuf -288 -16 R0
WINDOW 0 13 104 Left 2
WINDOW 3 13 132 Left 2
SYMATTR InstName A1
SYMATTR Value vt={-VBD}
SYMATTR Value2 vh=1m
SYMBOL Digital\\srflop -176 -48 R0
SYMATTR InstName A2
SYMBOL cap 208 48 R0
SYMATTR InstName C1
SYMATTR Value {cj}
TEXT 24 200 Right 0 !.model active D(Ron={ronback} Roff=10Meg Vfwd=2 Vrev={VBD} epsilon=1 revepsilon=1)\n.model inactive D(Ron={ronfwd/2} Roff=10Meg Vfwd=2 Vrev={VBD2} epsilon=1 revepsilon=1)
TEXT 24 -120 Right 1 !.param VBD=10 ronfwd=10m ronback=500 cj=1p\n.param VBD2=20
