Version 4
SHEET 1 880 680
WIRE 224 160 96 160
WIRE 256 160 224 160
WIRE 224 192 160 192
WIRE 256 192 224 192
WIRE 96 224 96 160
WIRE 160 224 160 192
FLAG 96 304 0
FLAG 160 304 0
FLAG 224 160 start
FLAG 224 192 rst
FLAG 384 176 tmo0
FLAG 384 256 tmo1
FLAG 384 368 tmo2
FLAG 256 240 start
FLAG 256 272 rst
FLAG 256 352 start
FLAG 256 384 rst
FLAG 384 480 tmo3
FLAG 256 464 start
FLAG 256 496 rst
SYMBOL timer 320 176 R0
SYMATTR InstName X1
SYMBOL voltage 96 208 M0
WINDOW 3 24 96 Invisible 2
WINDOW 123 0 0 Left 0
WINDOW 39 0 0 Left 0
SYMATTR InstName V1
SYMATTR Value PULSE(0 1 10u 1n 1n 100n 1 1)
SYMBOL voltage 160 208 R0
WINDOW 3 24 96 Invisible 2
WINDOW 123 0 0 Left 0
WINDOW 39 0 0 Left 0
SYMATTR InstName V2
SYMATTR Value PULSE(0 1 100u 1n 1n 1u 50u)
SYMBOL timer 320 256 R0
WINDOW 39 30 51 Bottom 1
SYMATTR InstName X2
SYMATTR SpiceLine per=25u
SYMBOL timer 320 368 R0
WINDOW 39 30 51 Bottom 1
SYMATTR InstName X3
SYMATTR SpiceLine per=50n
SYMBOL timer 320 480 R0
WINDOW 39 30 51 Bottom 1
SYMATTR InstName X4
SYMATTR SpiceLine per=100u
TEXT 40 328 Left 2 !.tran 1m
