Version 4
SHEET 1 880 680
WIRE 128 64 112 64
WIRE 80 112 64 112
WIRE 112 112 112 64
WIRE 112 112 80 112
WIRE 128 112 112 112
WIRE 112 160 112 112
WIRE 128 160 112 160
FLAG 80 112 iclk
FLAG -16 112 0
FLAG 176 64 oclk0
FLAG 176 112 oclk1
FLAG 176 160 oclk2
SYMBOL clkdiv 160 64 R0
SYMATTR InstName X1
SYMBOL clkdiv 160 112 R0
WINDOW 39 -3 6 Bottom 0
SYMATTR InstName X2
SYMATTR SpiceLine k=3
SYMBOL clkdiv 160 160 R0
WINDOW 39 -3 6 Bottom 0
SYMATTR InstName X3
SYMATTR SpiceLine k=8
SYMBOL voltage 80 112 R90
WINDOW 0 -32 56 VBottom 2
WINDOW 3 32 56 Invisible 2
WINDOW 123 0 0 Left 0
WINDOW 39 0 0 Left 0
SYMATTR InstName V1
SYMATTR Value PULSE(0 1 0.5u 1n 1n 0.5u 1u)
TEXT -4 158 Left 2 !.tran 20u
