Version 4
SHEET 1 880 680
WIRE 96 160 0 160
WIRE 128 160 96 160
WIRE 0 176 0 160
WIRE 128 192 96 192
WIRE 96 208 96 192
FLAG 96 288 0
FLAG 0 256 0
FLAG 96 160 I
FLAG 224 160 O
FLAG 96 192 rst
SYMBOL ignore_first_pulse 176 176 R0
SYMATTR InstName X1
SYMBOL voltage 0 160 M0
WINDOW 123 0 0 Left 0
WINDOW 39 0 0 Left 0
SYMATTR InstName V1
SYMATTR Value PULSE(0 1 1u 10n 10n 1u 2u)
SYMBOL voltage 96 192 M0
WINDOW 123 0 0 Left 0
WINDOW 39 0 0 Left 0
SYMATTR InstName V2
SYMATTR Value PULSE(0 1 9.5u 10n 10n 100n 9u)
TEXT -368 312 Left 2 !.tran 30u
