Version 4
SHEET 1 880 680
WIRE 144 272 128 272
WIRE 160 272 144 272
WIRE 144 368 128 368
WIRE 160 368 144 368
WIRE 144 464 128 464
WIRE 160 464 144 464
FLAG 48 272 0
FLAG 144 272 I
FLAG 48 368 0
FLAG 144 368 I2
FLAG 256 272 Or
FLAG 256 368 Or2
FLAG 48 464 0
FLAG 144 464 I3
FLAG 256 464 Or3
FLAG 224 288 d
FLAG 224 384 d2
FLAG 224 480 d3
FLAG 192 288 r
FLAG 192 384 r2
FLAG 192 480 r3
SYMBOL voltage 144 272 M270
WINDOW 0 32 56 VTop 2
WINDOW 3 -32 56 Invisible 2
WINDOW 123 0 0 Left 0
WINDOW 39 0 0 Left 0
SYMATTR InstName V1
SYMATTR Value PULSE(0 1 10u 1n 1n 10u 20u)
SYMBOL voltage 144 368 M270
WINDOW 0 32 56 VTop 2
WINDOW 3 -32 56 Invisible 2
WINDOW 123 0 0 Left 0
WINDOW 39 0 0 Left 0
SYMATTR InstName V2
SYMATTR Value PULSE(0 1 10u 1n 1n 5u 20u)
SYMBOL voltage 144 464 M270
WINDOW 0 32 56 VTop 2
WINDOW 3 -32 56 Invisible 2
WINDOW 123 0 0 Left 0
WINDOW 39 0 0 Left 0
SYMATTR InstName V3
SYMATTR Value PULSE(0 1 10u 1n 1n 5u 20u)
SYMBOL delay-rc-rise 208 272 R0
WINDOW 39 1 51 Bottom 2
SYMATTR InstName X1
SYMATTR SpiceLine tdr=2u
SYMBOL delay-rc-rise 208 368 R0
WINDOW 39 1 51 Bottom 2
SYMATTR InstName X2
SYMATTR SpiceLine tdr=2u
SYMBOL delay-rc-rise 208 464 R0
WINDOW 39 1 51 Bottom 2
SYMATTR InstName X3
SYMATTR SpiceLine tdr=2u
TEXT 168 208 Left 2 !.tran 40u
