Version 4
SHEET 1 880 700
WIRE 32 192 16 192
WIRE 64 192 32 192
WIRE 32 320 32 192
WIRE 64 320 32 320
WIRE 32 480 16 480
WIRE 64 480 32 480
FLAG -64 192 0
FLAG 32 192 I
FLAG 144 160 s[0]
FLAG 144 192 s[1]
FLAG 144 224 rdy
FLAG 144 288 s2[0]
FLAG 144 320 s2[1]
FLAG 144 352 rdy2
FLAG -64 480 0
FLAG 32 480 I3
FLAG 144 448 s3[0]
FLAG 144 480 s3[1]
FLAG 144 512 rdy3
SYMBOL sm_seq_timer_2state 96 192 R0
SYMATTR InstName X1
SYMBOL voltage 32 192 R90
WINDOW 0 -32 56 VBottom 2
WINDOW 3 32 56 Invisible 2
WINDOW 123 0 0 Left 0
WINDOW 39 0 0 Left 0
SYMATTR InstName V1
SYMATTR Value PULSE(0 1 100n 0 0 100n 200n)
SYMBOL sm_seq_timer_2state 96 320 R0
WINDOW 39 18 79 Bottom 2
SYMATTR InstName X2
SYMATTR SpiceLine ton0=10n ton1=30n
SYMBOL voltage 32 480 R90
WINDOW 0 -32 56 VBottom 2
WINDOW 3 32 56 Invisible 2
WINDOW 123 0 0 Left 0
WINDOW 39 0 0 Left 0
SYMATTR InstName V2
SYMATTR Value PULSE(0 1 15n 0 0 15n 30n)
SYMBOL sm_seq_timer_2state 96 480 R0
WINDOW 39 18 79 Bottom 2
SYMATTR InstName X4
SYMATTR SpiceLine ton0=10n ton1=30n
TEXT -44 342 Left 2 !.tran 1u
