Version 4
SHEET 1 880 680
WIRE 96 128 80 128
WIRE 112 128 96 128
FLAG 176 112 chg
IOPIN 176 112 Out
FLAG 176 144 _chg
IOPIN 176 144 Out
FLAG 0 128 0
FLAG 96 128 in
SYMBOL voltage 96 128 M270
WINDOW 0 32 56 VTop 2
WINDOW 3 -32 56 Invisible 2
WINDOW 123 0 0 Left 0
WINDOW 39 0 0 Left 0
SYMATTR InstName V1
SYMATTR Value PULSE(0 1 50n 1n 1n 50n 100n)
SYMBOL dead-time-gen-fast 144 128 R0
SYMATTR InstName X1
TEXT 104 176 Left 2 !.tran 1u
