Version 4
SHEET 1 880 680
WIRE 128 256 112 256
WIRE 160 256 128 256
WIRE 128 320 112 320
WIRE 160 320 128 320
WIRE 128 384 112 384
WIRE 160 384 128 384
WIRE 128 480 112 480
WIRE 160 480 128 480
FLAG 32 256 0
FLAG 224 256 out0
FLAG 128 256 in0
FLAG 32 320 0
FLAG 224 320 out1
FLAG 128 320 in1
FLAG 32 384 0
FLAG 224 384 out2
FLAG 128 384 in2
FLAG 32 480 0
FLAG 224 480 out3
FLAG 128 480 in3
SYMBOL voltage 128 256 M270
WINDOW 3 24 96 Invisible 2
WINDOW 123 0 0 Left 0
WINDOW 39 0 0 Left 0
SYMATTR Value PULSE(0 1 1u 1n 1n 1u 2u)
SYMATTR InstName V1
SYMBOL voltage 128 320 M270
WINDOW 3 24 96 Invisible 2
WINDOW 123 0 0 Left 0
WINDOW 39 0 0 Left 0
SYMATTR Value PULSE(0 1 1u 1n 1n 2n 2u)
SYMATTR InstName V3
SYMBOL voltage 128 384 M270
WINDOW 3 24 96 Invisible 2
WINDOW 123 0 0 Left 0
WINDOW 39 0 0 Left 0
SYMATTR Value PULSE(0 1 50n 1n 1n 10n 100n)
SYMATTR InstName V4
SYMBOL voltage 128 480 M270
WINDOW 3 24 96 Invisible 2
WINDOW 123 0 0 Left 0
WINDOW 39 0 0 Left 0
SYMATTR Value PULSE(1 0 2u 1n 1n 1u 2u)
SYMATTR InstName V2
SYMBOL oneshot 192 256 R0
SYMATTR InstName X1
SYMBOL oneshot 192 320 R0
SYMATTR InstName X2
SYMBOL oneshot 192 384 R0
WINDOW 39 1 40 Bottom 2
SYMATTR InstName X3
SYMATTR SpiceLine ton=3n
SYMBOL oneshot 192 480 R0
WINDOW 39 1 40 Bottom 2
SYMATTR InstName X4
SYMATTR SpiceLine ton=4u
TEXT 48 184 Left 2 !.tran 20u
