Version 4
SHEET 1 880 680
WIRE 80 128 -16 128
WIRE 112 128 80 128
WIRE 80 160 64 160
WIRE 112 160 80 160
FLAG 208 112 o[0]
FLAG 208 144 o[1]
FLAG -96 128 0
FLAG 80 128 i[0]
FLAG 208 176 o[2]
FLAG -16 160 0
FLAG 80 160 i[1]
SYMBOL voltage 0 128 M270
WINDOW 0 32 56 VTop 2
WINDOW 3 -32 56 Invisible 2
WINDOW 123 0 0 Left 0
WINDOW 39 0 0 Left 0
SYMATTR InstName V1
SYMATTR Value PULSE(0 1 50n 1n 1n 50n 100n)
SYMBOL voltage 80 160 M270
WINDOW 0 32 56 VTop 2
WINDOW 3 -32 56 Invisible 2
WINDOW 123 0 0 Left 0
WINDOW 39 0 0 Left 0
SYMATTR InstName V2
SYMATTR Value PULSE(0 1 75n 1n 1n 75n 150n)
SYMBOL dead-time-gen-3way 160 144 R0
SYMATTR InstName X2
TEXT 112 208 Left 2 !.tran 1m
