Version 4
SHEET 1 880 680
WIRE 128 176 112 176
WIRE 144 176 128 176
FLAG 208 160 chg
IOPIN 208 160 Out
FLAG 208 192 _chg
IOPIN 208 192 Out
FLAG 32 176 0
FLAG 128 176 in
SYMBOL dead-time-gen 176 176 R0
SYMATTR InstName X1
SYMBOL voltage 128 176 M270
WINDOW 0 32 56 VTop 2
WINDOW 3 -32 56 Invisible 2
WINDOW 123 0 0 Left 0
WINDOW 39 0 0 Left 0
SYMATTR InstName V1
SYMATTR Value PULSE(0 1 50n 1n 1n 50n 100n)
TEXT 128 224 Left 2 !.tran 1m
