Version 4
SHEET 1 880 680
WIRE 128 256 112 256
WIRE 160 256 128 256
FLAG 32 256 0
FLAG 224 256 out0
FLAG 128 256 in0
SYMBOL voltage 128 256 M270
WINDOW 3 24 96 Invisible 2
WINDOW 123 0 0 Left 0
WINDOW 39 0 0 Left 0
SYMATTR Value PULSE(0 1 1u 1n 1n 1u 2u)
SYMATTR InstName V1
SYMBOL oneshot 192 256 R0
SYMATTR InstName X2
TEXT 48 184 Left 2 !.tran 100m
TEXT 112 304 Left 2 ;11.549s
