Version 4
SHEET 1 1388 680
WIRE 160 -336 144 -336
WIRE 416 -336 352 -336
WIRE 640 -336 416 -336
WIRE 160 -304 112 -304
WIRE 640 -304 480 -304
WIRE 768 -304 704 -304
WIRE 832 -304 768 -304
WIRE 640 -272 496 -272
WIRE 640 -240 512 -240
WIRE 672 -208 672 -224
WIRE 672 -208 640 -208
WIRE 144 -176 144 -336
WIRE 160 -176 144 -176
WIRE 416 -176 352 -176
WIRE 480 -176 480 -304
WIRE 480 -176 416 -176
WIRE 160 -144 128 -144
WIRE 112 -112 112 -304
WIRE 112 -112 96 -112
WIRE 128 -80 128 -144
WIRE 128 -80 96 -80
WIRE 128 -48 96 -48
WIRE 112 -16 96 -16
WIRE 144 -16 144 -176
WIRE 160 -16 144 -16
WIRE 416 -16 352 -16
WIRE 496 -16 496 -272
WIRE 496 -16 416 -16
WIRE 64 16 64 0
WIRE 64 16 0 16
WIRE 128 16 128 -48
WIRE 160 16 128 16
WIRE 144 144 144 -16
WIRE 160 144 144 144
WIRE 416 144 352 144
WIRE 512 144 512 -240
WIRE 512 144 416 144
WIRE 112 176 112 -16
WIRE 160 176 112 176
FLAG 144 -336 din[1:0]
IOPIN 144 -336 In
FLAG 0 16 wptr[1:0]
IOPIN 0 16 In
FLAG 0 -64 write
IOPIN 0 -64 In
FLAG 416 144 mem3[1:0]
FLAG 416 -16 mem2[1:0]
FLAG 416 -176 mem1[1:0]
FLAG 416 -336 mem0[1:0]
FLAG 640 -208 rptr[1:0]
IOPIN 640 -208 In
FLAG 1024 -304 dout[1:0]
IOPIN 1024 -304 Out
FLAG 832 -272 read
IOPIN 832 -272 In
FLAG 608 96 0
FLAG 688 96 $G_fifo_mem[0]
FLAG 608 32 0
FLAG 688 32 $G_fifo_mem[1]
FLAG 608 -32 0
FLAG 688 -32 $G_fifo_mem[2]
FLAG 608 -96 0
FLAG 688 -96 $G_fifo_mem[3]
FLAG 768 -304 draw[1:0]
FLAG 704 -272 0
FLAG 928 -256 0
FLAG 256 -288 0
FLAG 256 -128 0
FLAG 256 32 0
FLAG 256 192 0
SYMBOL dbuf_2bit 256 160 R0
SYMATTR InstName X1
SYMBOL dbuf_2bit 256 0 R0
SYMATTR InstName X2
SYMBOL dbuf_2bit 256 -160 R0
SYMATTR InstName X3
SYMBOL dbuf_2bit 256 -320 R0
SYMATTR InstName X4
SYMBOL dbuf_2bit 928 -288 R0
SYMATTR InstName X7
SYMBOL bi 608 96 M90
WINDOW 0 -32 40 VBottom 2
WINDOW 3 32 40 Invisible 2
SYMATTR InstName B1
SYMATTR Value I=2*V(mem0[1])+V(mem0[0])
SYMATTR Value2 Rpar=1
SYMBOL bi 608 32 M90
WINDOW 0 -32 40 VBottom 2
WINDOW 3 32 40 Invisible 2
SYMATTR InstName B2
SYMATTR Value I=2*V(mem1[1])+V(mem1[0])
SYMATTR Value2 Rpar=1
SYMBOL bi 608 -32 M90
WINDOW 0 -32 40 VBottom 2
WINDOW 3 32 40 Invisible 2
SYMATTR InstName B3
SYMATTR Value I=2*V(mem2[1])+V(mem2[0])
SYMATTR Value2 Rpar=1
SYMBOL bi 608 -96 M90
WINDOW 0 -32 40 VBottom 2
WINDOW 3 32 40 Invisible 2
SYMATTR InstName B4
SYMATTR Value I=2*V(mem3[1])+V(mem3[0])
SYMATTR Value2 Rpar=1
SYMBOL mux-2bit-4to1-gray 672 -288 R0
SYMATTR InstName X9
SYMBOL demux-1bit-1to4-gray 64 -64 R0
SYMATTR InstName X10
SYMBOL edge 16 -64 R0
WINDOW 39 -7 32 Bottom 0
SYMATTR InstName X5
