Version 4
SHEET 1 880 680
WIRE 288 16 272 16
WIRE 288 32 288 16
WIRE 288 48 272 48
WIRE 288 64 272 64
WIRE 160 80 144 80
WIRE 272 80 272 64
WIRE 288 80 272 80
WIRE 368 80 352 80
WIRE 160 96 160 80
WIRE 272 96 272 80
WIRE 288 96 272 96
WIRE 160 112 144 112
WIRE 240 112 224 112
WIRE 272 112 272 96
WIRE 288 112 272 112
WIRE 304 112 304 96
WIRE 304 112 288 112
WIRE 160 128 144 128
WIRE 144 144 144 128
WIRE 160 144 144 144
WIRE 144 160 144 144
WIRE 160 160 144 160
WIRE 240 160 240 112
WIRE 256 160 240 160
WIRE 144 176 144 160
WIRE 160 176 144 176
WIRE 176 176 176 160
WIRE 176 176 160 176
WIRE 368 192 368 80
WIRE 256 208 240 208
WIRE 160 224 144 224
WIRE 368 224 352 224
WIRE 160 240 160 224
WIRE 352 240 352 224
WIRE 368 240 352 240
WIRE 160 256 144 256
WIRE 240 256 240 208
WIRE 240 256 224 256
WIRE 352 256 352 240
WIRE 368 256 352 256
WIRE 160 272 144 272
WIRE 352 272 352 256
WIRE 368 272 352 272
WIRE 384 272 384 256
WIRE 384 272 368 272
WIRE 144 288 144 272
WIRE 160 288 144 288
WIRE 144 304 144 288
WIRE 160 304 144 304
WIRE 144 320 144 304
WIRE 160 320 144 320
WIRE 176 320 176 304
WIRE 176 320 160 320
FLAG 256 240 0
FLAG 352 160 0
FLAG 432 208 _has
IOPIN 432 208 Out
FLAG 160 176 0
FLAG 224 144 0
FLAG 144 80 at_fifoin
IOPIN 144 80 In
FLAG 144 112 write
IOPIN 144 112 In
FLAG 160 320 0
FLAG 224 288 0
FLAG 144 224 at_fifoout
IOPIN 144 224 In
FLAG 144 256 read
IOPIN 144 256 In
FLAG 432 240 0
FLAG 368 272 0
FLAG 288 112 0
FLAG 272 48 ovalid
IOPIN 272 48 In
FLAG 352 48 0
FLAG 272 16 at_fifoout
SYMBOL Digital\\srflop 304 112 R0
WINDOW 0 -14 70 Left 2
SYMATTR InstName A1
SYMBOL Digital\\and 192 64 R0
SYMATTR InstName A2
SYMBOL Digital\\and 192 208 R0
WINDOW 0 17 114 Left 2
SYMATTR InstName A3
SYMBOL Digital\\and 320 0 R0
WINDOW 0 -15 10 Left 2
SYMATTR InstName A4
SYMBOL Digital\\and 400 160 R0
WINDOW 0 -1 14 Left 2
SYMATTR InstName A5
TEXT 24 -16 Left 1 ;Store if a value is NOT in the FIFO AND its output
