Version 4
SHEET 1 880 680
WIRE 0 48 -64 48
WIRE 0 112 0 48
WIRE -48 144 -64 144
WIRE -32 144 -48 144
FLAG -144 144 0
FLAG 48 160 O
FLAG -48 144 X
FLAG -96 272 0
FLAG -16 272 0
FLAG -144 48 0
FLAG 0 48 en
SYMBOL voltage -48 144 R90
WINDOW 0 -32 56 VBottom 2
WINDOW 3 32 56 Invisible 2
WINDOW 123 0 0 Left 0
WINDOW 39 0 0 Left 0
SYMATTR InstName V1
SYMATTR Value SINE(0 1 1k)
SYMBOL bi -96 272 R270
WINDOW 0 32 40 VTop 2
WINDOW 3 -32 40 Invisible 2
SYMATTR InstName expected
SYMATTR Value I=IF(V(en),MAX(V(x),0),0)
SYMATTR Value2 Rpar=1
SYMBOL amux-posonly-en 0 176 R0
SYMATTR InstName X1
SYMBOL voltage -48 48 R90
WINDOW 0 -32 56 VBottom 2
WINDOW 3 32 56 Invisible 2
WINDOW 123 0 0 Left 0
WINDOW 39 0 0 Left 0
SYMATTR InstName V2
SYMATTR Value PULSE(0 1 1m 1n 1n 1m 2m)
TEXT -136 200 Left 2 !.tran 8m
