Version 4
SHEET 1 880 680
WIRE 32 160 16 160
WIRE 64 160 32 160
WIRE 176 160 128 160
WIRE 208 160 176 160
WIRE 224 160 208 160
WIRE 16 176 16 160
WIRE 208 320 208 160
WIRE 224 320 208 320
FLAG 96 176 0
FLAG 368 160 out
FLAG 32 160 clk
FLAG 176 160 val[2:0]
FLAG 16 256 0
FLAG 240 240 0
FLAG 320 240 expected
FLAG 368 320 out2
FLAG 240 400 0
FLAG 320 400 expected2
SYMBOL dac-3bit-fast 288 160 R0
SYMATTR InstName X1
SYMBOL voltage 16 160 M0
WINDOW 3 24 96 Invisible 2
WINDOW 123 0 0 Left 0
WINDOW 39 0 0 Left 0
SYMATTR Value PULSE(0 1 10u 100n 100n 10u 20u)
SYMATTR InstName V1
SYMBOL bv 336 240 R90
WINDOW 0 -32 56 VBottom 2
WINDOW 3 32 56 Invisible 2
SYMATTR InstName B1
SYMATTR Value V=4*V(val[2])+2*V(val[1])+V(val[0])
SYMBOL up_3bitcounter 96 160 R0
SYMATTR InstName X2
SYMBOL dac-3bit-fast 288 320 R0
WINDOW 39 71 42 Bottom 2
SYMATTR SpiceLine ref=1.25
SYMATTR InstName X3
SYMBOL bv 336 400 R90
WINDOW 0 -32 56 VBottom 2
WINDOW 3 32 56 Invisible 2
SYMATTR InstName B2
SYMATTR Value V=(4*V(val[2])+2*V(val[1])+V(val[0]))*1.25/8
TEXT 56 232 Left 2 !.tran 170u
