Version 4
SHEET 1 880 680
WIRE 32 160 16 160
WIRE 64 160 32 160
WIRE 176 160 128 160
WIRE 208 160 176 160
WIRE 224 160 208 160
WIRE 16 176 16 160
WIRE 208 224 208 160
WIRE 224 224 208 224
FLAG 96 176 0
FLAG 368 160 out
FLAG 32 160 clk
FLAG 176 160 val[4:0]
FLAG 16 256 0
FLAG 368 224 out2
SYMBOL voltage 16 160 M0
WINDOW 3 24 96 Invisible 2
WINDOW 123 0 0 Left 0
WINDOW 39 0 0 Left 0
SYMATTR Value PULSE(0 1 10u 100n 100n 10u 20u)
SYMATTR InstName V1
SYMBOL up_5bitcounter 96 160 R0
SYMATTR InstName X2
SYMBOL dac-signed-5bit-fast 288 160 R0
SYMATTR InstName X1
SYMBOL dac-signed-5bit-fast 288 224 R0
WINDOW 39 76 47 Bottom 2
SYMATTR InstName X3
SYMATTR SpiceLine ref=1.25
TEXT 56 208 Left 2 !.tran 5.16m
