Version 4
SHEET 1 880 680
WIRE 48 96 -16 96
WIRE 112 96 48 96
WIRE 112 128 48 128
WIRE -16 144 -16 96
WIRE 48 144 48 128
WIRE 128 160 128 144
WIRE 128 176 128 160
FLAG -16 224 0
FLAG 48 128 th
FLAG 48 96 in
FLAG 176 128 0
FLAG 176 96 Q
FLAG 48 224 0
FLAG 128 256 0
FLAG 128 160 en
SYMBOL voltage -16 128 M0
WINDOW 3 24 96 Invisible 2
WINDOW 123 0 0 Left 0
WINDOW 39 0 0 Left 0
SYMATTR Value PULSE(2.5 3.5 0 1u 1u 1n 2u)
SYMATTR InstName V1
SYMBOL voltage 48 128 R0
SYMATTR InstName V3
SYMATTR Value 3
SYMBOL comp_en 112 48 R0
SYMATTR InstName X1
SYMBOL voltage 128 160 R0
WINDOW 3 24 96 Invisible 2
WINDOW 123 0 0 Left 0
WINDOW 39 0 0 Left 0
SYMATTR InstName V2
SYMATTR Value PULSE(0 1 5u 1n 1n 2u 4u)
TEXT -16 256 Left 2 !.tran 20u
