Version 4
SHEET 1 880 680
WIRE 48 144 -64 144
WIRE 64 144 48 144
WIRE 48 176 16 176
WIRE 64 176 48 176
FLAG -64 176 0
FLAG -144 144 0
FLAG 144 160 O
FLAG 48 144 X
FLAG 48 176 Y
FLAG -48 80 0
FLAG 32 80 0
SYMBOL voltage -48 144 R90
WINDOW 0 -32 56 VBottom 2
WINDOW 3 32 56 Invisible 2
WINDOW 123 0 0 Left 0
WINDOW 39 0 0 Left 0
SYMATTR InstName V1
SYMATTR Value SINE(0 1 1k)
SYMBOL voltage 32 176 R90
WINDOW 0 -32 56 VBottom 2
WINDOW 3 32 56 Invisible 2
WINDOW 123 0 0 Left 0
WINDOW 39 0 0 Left 0
SYMATTR InstName V2
SYMATTR Value SINE(0 0.5 10k)
SYMBOL bi -48 80 R270
WINDOW 0 32 40 VTop 2
WINDOW 3 -32 40 Invisible 2
SYMATTR InstName expected
SYMATTR Value I=MIN(V(x),V(y))
SYMATTR Value2 Rpar=1
SYMBOL amux-min 96 176 R0
WINDOW 39 27 9 Left 0
SYMATTR InstName X1
SYMATTR SpiceLine td=0
TEXT 16 208 Left 2 !.tran 8m
