Version 4
SHEET 1 880 680
WIRE -112 80 -176 80
WIRE -176 96 -176 80
WIRE -112 112 -112 80
WIRE 0 144 -96 144
WIRE 0 160 0 144
WIRE -176 192 -176 176
WIRE -112 192 -112 176
WIRE -112 192 -176 192
WIRE -176 208 -176 192
FLAG -176 208 0
FLAG -176 80 D
FLAG 0 240 0
FLAG 0 144 photon
SYMBOL voltage -176 80 M0
SYMATTR InstName V1
SYMATTR Value 0
SYMBOL voltage 0 144 R0
SYMATTR InstName V2
SYMATTR Value {photon}
SYMBOL SPAD-primitive -112 144 R90
SYMATTR InstName X1
TEXT -216 272 Left 2 !.dc V1 -20 2.01 1m
TEXT -216 296 Left 2 !.step param photon list 1 0
