Version 4
SHEET 1 880 680
WIRE 32 160 16 160
WIRE 64 160 32 160
WIRE 16 176 16 160
FLAG 96 176 0
FLAG 368 192 out
FLAG 32 160 clk
FLAG 128 160 val[2:0]
FLAG 16 256 0
FLAG 176 272 0
FLAG 256 272 expected
FLAG 224 192 val[1:0]
FLAG 368 336 out2
FLAG 176 416 0
FLAG 256 416 expected2
FLAG 224 336 val[1:0]
SYMBOL voltage 16 160 M0
WINDOW 3 24 96 Invisible 2
WINDOW 123 0 0 Left 0
WINDOW 39 0 0 Left 0
SYMATTR Value PULSE(0 1 10u 100n 100n 10u 20u)
SYMATTR InstName V1
SYMBOL bv 272 272 R90
WINDOW 0 -32 56 VBottom 2
WINDOW 3 32 56 Invisible 2
SYMATTR InstName B1
SYMATTR Value V=2*V(val[1])+V(val[0])
SYMBOL up_3bitcounter 96 160 R0
SYMATTR InstName X2
SYMBOL dac-2bit-fast 288 192 R0
SYMATTR InstName X1
SYMBOL bv 272 416 R90
WINDOW 0 -32 56 VBottom 2
WINDOW 3 32 56 Invisible 2
SYMATTR InstName B2
SYMATTR Value V=(2*V(val[1])+V(val[0]))*1.25/4
SYMBOL dac-2bit-fast 288 336 R0
WINDOW 39 13 44 Bottom 2
SYMATTR SpiceLine ref=1.25
SYMATTR InstName X3
TEXT 0 320 Left 2 !.tran 170u
