Version 4
SHEET 1 880 680
WIRE 48 144 -64 144
WIRE 64 144 48 144
WIRE 48 176 16 176
WIRE 64 176 48 176
WIRE 96 224 96 208
WIRE 96 240 96 224
FLAG -64 176 0
FLAG -144 144 0
FLAG 96 320 0
FLAG 144 160 O
FLAG 48 144 X
FLAG 48 176 Y
FLAG 96 224 c
FLAG 0 272 0
FLAG -80 272 0
SYMBOL voltage -48 144 R90
WINDOW 0 -32 56 VBottom 2
WINDOW 3 32 56 Invisible 2
WINDOW 123 0 0 Left 0
WINDOW 39 0 0 Left 0
SYMATTR InstName V1
SYMATTR Value SINE(0 1 1k)
SYMBOL voltage 32 176 R90
WINDOW 0 -32 56 VBottom 2
WINDOW 3 32 56 Invisible 2
WINDOW 123 0 0 Left 0
WINDOW 39 0 0 Left 0
SYMATTR InstName V2
SYMATTR Value SINE(0 0.5 10k)
SYMBOL voltage 96 224 M0
WINDOW 3 24 96 Invisible 2
WINDOW 123 0 0 Left 0
WINDOW 39 0 0 Left 0
SYMATTR Value PULSE(0 1 2m 1n 1n 2m 4m)
SYMATTR InstName V3
SYMBOL amux-2to1 96 176 R0
SYMATTR InstName X2
SYMBOL bi -80 272 R270
WINDOW 0 32 40 VTop 2
WINDOW 3 -32 40 Invisible 2
SYMATTR InstName expected
SYMATTR Value I=IF(V(c),V(y),V(x))
SYMATTR Value2 Rpar=1
TEXT -24 96 Left 2 !.tran 8m
