Version 4
SHEET 1 880 680
WIRE 128 160 112 160
WIRE 224 160 128 160
WIRE 432 160 368 160
WIRE 496 160 432 160
WIRE 112 176 112 160
WIRE 208 224 192 224
WIRE 224 224 208 224
WIRE 432 224 368 224
WIRE 496 224 432 224
WIRE 192 240 192 224
FLAG 640 160 out
FLAG 128 160 in
FLAG 112 256 0
FLAG 640 224 out2
FLAG 432 160 out[4:0]
FLAG 432 224 out2[4:0]
FLAG 208 224 in2
FLAG 192 320 0
SYMBOL voltage 112 160 M0
WINDOW 3 24 96 Invisible 2
WINDOW 123 0 0 Left 0
WINDOW 39 0 0 Left 0
SYMATTR Value SINE(16 16 1k)
SYMATTR InstName V1
SYMBOL adc-5bit-fast 304 160 R0
SYMATTR InstName X1
SYMBOL adc-5bit-fast 304 224 R0
WINDOW 39 -8 44 Top 2
SYMATTR InstName X3
SYMATTR SpiceLine ref=1.25
SYMBOL dac-5bit-fast 560 160 R0
SYMATTR InstName X2
SYMBOL dac-5bit-fast 560 224 R0
SYMATTR InstName X4
SYMBOL voltage 192 224 M0
WINDOW 3 24 96 Invisible 2
WINDOW 123 0 0 Left 0
WINDOW 39 0 0 Left 0
SYMATTR Value SINE(0.625 0.625 1k)
SYMATTR InstName V2
TEXT 368 256 Left 2 !.tran 1m
