Version 4
SHEET 1 880 680
WIRE 144 112 96 112
WIRE 176 112 144 112
WIRE 96 128 96 112
WIRE 176 128 176 112
WIRE 144 240 96 240
WIRE 176 240 144 240
WIRE 96 256 96 240
WIRE 176 256 176 240
FLAG 96 208 0
FLAG 176 208 0
FLAG 144 112 bat
FLAG 96 336 0
FLAG 176 336 0
FLAG 144 240 bat2
SYMBOL battery_model 96 160 R0
WINDOW 39 -25 1 Right 1
SYMATTR SpiceLine capacity=2
SYMATTR InstName X1
SYMBOL current 176 128 R0
WINDOW 123 0 0 Left 0
WINDOW 39 0 0 Left 0
WINDOW 3 24 80 Left 0
SYMATTR InstName I1
SYMATTR Value PULSE(2 -2 3600 1u 1u 3600 7200)
SYMBOL battery_model 96 288 R0
WINDOW 39 -25 1 Right 1
SYMATTR SpiceLine capacity=2 init=0
SYMATTR InstName X2
SYMBOL current 176 256 R0
WINDOW 123 0 0 Left 0
WINDOW 39 0 0 Left 0
WINDOW 3 24 80 Left 0
SYMATTR InstName I2
SYMATTR Value PULSE(-2 2 3600 1u 1u 3600 7200)
TEXT -8 96 Left 2 !.tran 7200
