Version 4
SHEET 1 880 680
WIRE -112 16 -176 16
WIRE -112 32 -112 16
WIRE -176 96 -176 16
WIRE 0 144 -96 144
WIRE 0 160 0 144
WIRE -112 192 -112 176
WIRE -112 224 -112 192
FLAG -176 176 0
FLAG -176 16 bias+
FLAG 0 240 0
FLAG 0 144 photon
FLAG -112 304 0
FLAG -112 192 bias-
SYMBOL voltage -176 80 M0
SYMATTR InstName V1
SYMATTR Value 0
SYMBOL voltage 0 144 R0
WINDOW 3 24 96 Left 0
WINDOW 123 0 0 Left 0
WINDOW 39 0 0 Left 0
SYMATTR InstName V2
SYMATTR Value PULSE(0 1 10m 100n 100n 10m 20m)
SYMBOL SPAD-primitive -112 144 M270
SYMATTR InstName X1
SYMBOL voltage -112 208 M0
WINDOW 3 22 91 Left 1
WINDOW 123 0 0 Left 0
WINDOW 39 0 0 Left 0
SYMATTR InstName V3
SYMATTR Value SINE(-10 2 200)
SYMBOL voltage -112 16 R0
SYMATTR InstName isns
SYMATTR Value 0
TEXT -72 96 Left 2 !.tran 100m
