Version 4
SHEET 1 880 680
WIRE 48 96 -16 96
WIRE 112 96 48 96
WIRE 112 128 48 128
WIRE -16 144 -16 96
WIRE 48 144 48 128
WIRE 48 272 -16 272
WIRE 112 272 48 272
WIRE 112 304 48 304
WIRE -16 320 -16 272
WIRE 48 320 48 304
FLAG -16 224 0
FLAG 48 400 0
FLAG 48 128 th0
FLAG 48 96 in0
FLAG 192 128 0
FLAG 192 96 Q0
FLAG 192 272 Q1
FLAG 48 304 th1
FLAG 48 224 0
FLAG -16 400 0
FLAG 48 272 in1
FLAG 192 304 0
SYMBOL voltage -16 128 M0
WINDOW 3 24 96 Invisible 2
WINDOW 123 0 0 Left 0
WINDOW 39 0 0 Left 0
SYMATTR Value PULSE(2.5 3.5 0 1u 1u 1n 2u)
SYMATTR InstName V1
SYMBOL voltage 48 304 R0
SYMATTR InstName V2
SYMATTR Value 4
SYMBOL voltage 48 128 R0
SYMATTR InstName V3
SYMATTR Value 3
SYMBOL voltage -16 304 M0
WINDOW 3 24 96 Invisible 2
WINDOW 123 0 0 Left 0
WINDOW 39 0 0 Left 0
SYMATTR Value PULSE(3.5 4.5 0 1u 1u 1n 2u)
SYMATTR InstName V4
SYMBOL comp_hys-fall-fast 144 112 R0
WINDOW 39 3 75 Bottom 2
SYMATTR InstName X3
SYMATTR SpiceLine hys=0.2
SYMBOL comp_hys-rise-fast 144 288 R0
WINDOW 39 12 72 Bottom 2
SYMATTR InstName X4
SYMATTR SpiceLine hys=0.2
TEXT 104 392 Left 2 !.tran 4u
