Version 4
SHEET 1 880 680
WIRE -912 48 -960 48
WIRE -960 64 -960 48
FLAG -960 144 0
FLAG -640 144 Q
FLAG -640 176 0
FLAG -1248 96 0
FLAG -1248 16 Xtot
FLAG -1184 96 0
FLAG -1184 16 Ytot
FLAG -768 144 B[3:2]
FLAG -768 176 B[1:0]
FLAG -960 48 clk
FLAG -768 64 B[3:0]
FLAG -1120 16 L
FLAG -1120 96 0
FLAG -912 80 L
SYMBOL voltage -960 48 M0
WINDOW 123 0 0 Left 0
WINDOW 39 0 0 Left 0
SYMATTR InstName V5
SYMATTR Value PULSE(0 1 25u 1n 1n 25u 50u)
SYMBOL bv -1248 0 M0
WINDOW 3 24 96 Invisible 2
SYMATTR Value V=V(b[3])*2+V(b[2])
SYMATTR InstName B1
SYMBOL bv -1184 0 M0
WINDOW 3 24 96 Invisible 2
SYMATTR Value V=V(b[1])*2+V(b[0])
SYMATTR InstName B2
SYMBOL voltage -1120 0 R0
SYMATTR InstName V1
SYMATTR Value 0
SYMBOL lt-2bit -704 160 R0
SYMATTR InstName X3
SYMBOL up_4bitcounter -848 64 R0
SYMATTR InstName X1
TEXT -1008 176 Left 2 !.tran 800u
