Version 4
SHEET 1 880 680
WIRE -912 32 -960 32
WIRE -960 48 -960 32
FLAG -960 128 0
FLAG -768 176 Q
FLAG -768 208 0
FLAG -1264 80 0
FLAG -1264 0 Xtot
FLAG -1200 80 0
FLAG -1200 0 Ytot
FLAG -896 176 B[5:3]
FLAG -896 208 B[2:0]
FLAG -960 32 clk
FLAG -1136 80 0
FLAG -1136 0 L
FLAG -768 48 B[5:0]
FLAG -912 64 L
SYMBOL voltage -960 32 M0
WINDOW 123 0 0 Left 0
WINDOW 39 0 0 Left 0
SYMATTR InstName V5
SYMATTR Value PULSE(0 1 25u 1n 1n 25u 50u)
SYMBOL bv -1264 -16 M0
WINDOW 3 24 96 Invisible 2
SYMATTR Value V=V(b[5])*4+V(b[4])*2+V(b[3])
SYMATTR InstName B1
SYMBOL bv -1200 -16 M0
WINDOW 3 24 96 Invisible 2
SYMATTR Value V=V(b[2])*4+V(b[1])*2+V(b[0])
SYMATTR InstName B2
SYMBOL voltage -1136 -16 R0
SYMATTR InstName V1
SYMATTR Value 0
SYMBOL lt-3bit -832 192 R0
SYMATTR InstName X2
SYMBOL up_6bitcounter -848 48 R0
SYMATTR InstName X1
TEXT -1136 184 Left 2 !.tran 3.2m
