Version 4
SHEET 1 1396 984
WIRE 160 256 -48 256
WIRE -48 288 -48 256
WIRE 160 288 48 288
WIRE 48 320 48 288
WIRE 144 320 128 320
WIRE 160 320 144 320
WIRE 144 352 144 320
FLAG 48 400 0
FLAG 48 288 clk
IOPIN 48 288 In
FLAG 240 272 Q
IOPIN 240 272 Out
FLAG 240 304 _Q
IOPIN 240 304 Out
FLAG 144 432 0
FLAG 128 320 clr
IOPIN 128 320 In
FLAG -48 368 0
FLAG -48 256 T
IOPIN -48 256 In
SYMBOL voltage 48 304 M0
WINDOW 123 0 0 Left 0
WINDOW 39 0 0 Left 0
SYMATTR InstName V1
SYMATTR Value PULSE(0 1 2u 1n 1n 500n 1.05u 23)
SYMBOL voltage 144 336 M0
WINDOW 123 0 0 Left 0
WINDOW 39 0 0 Left 0
SYMATTR InstName V2
SYMATTR Value PULSE(1 0 1u 1n 1n 1)
SYMBOL voltage -48 272 M0
WINDOW 123 0 0 Left 0
WINDOW 39 0 0 Left 0
SYMATTR InstName V3
SYMATTR Value PULSE(0 1 4u 1n 1n 4u 8u)
SYMBOL tflipflop 192 288 R0
SYMATTR InstName X1
TEXT -304 312 Left 2 !.tran 40u
