Version 4
SHEET 1 1396 984
WIRE 176 192 -144 192
WIRE -144 224 -144 192
WIRE 176 224 -48 224
WIRE -48 256 -48 224
WIRE 176 256 48 256
WIRE 48 288 48 256
WIRE 208 288 208 272
WIRE 208 320 208 288
FLAG 48 368 0
FLAG 48 256 clk
FLAG 240 192 Q
FLAG 240 224 _Q
FLAG 208 400 0
FLAG 208 288 clr
FLAG -48 336 0
FLAG -48 224 K
FLAG -144 304 0
FLAG -144 192 J
SYMBOL voltage 48 272 M0
WINDOW 123 0 0 Left 0
WINDOW 39 0 0 Left 0
SYMATTR InstName V1
SYMATTR Value PULSE(0 1 2u 1n 1n 500n 1u)
SYMBOL voltage 208 304 M0
WINDOW 123 0 0 Left 0
WINDOW 39 0 0 Left 0
SYMATTR InstName V2
SYMATTR Value PULSE(1 0 3u 1n 1n 30u 1)
SYMBOL voltage -48 240 M0
WINDOW 123 0 0 Left 0
WINDOW 39 0 0 Left 0
SYMATTR InstName V3
SYMATTR Value PULSE(0 1 4u 1n 1n 4u 8u)
SYMBOL voltage -144 208 M0
WINDOW 123 0 0 Left 0
WINDOW 39 0 0 Left 0
SYMATTR InstName V4
SYMATTR Value PULSE(0 1 8u 1n 1n 8u 16u)
SYMBOL JKflipflop 208 240 R0
WINDOW 0 8 -64 Bottom 2
SYMATTR InstName X1
TEXT -400 240 Left 2 !.tran 40u
