Version 4
SHEET 1 880 680
WIRE 16 -16 0 -16
WIRE 32 -16 16 -16
WIRE 16 96 0 96
WIRE 32 96 32 -16
WIRE 48 96 32 96
WIRE 16 128 16 96
WIRE 48 128 16 128
WIRE 48 160 16 160
WIRE 48 192 32 192
WIRE 16 208 16 160
WIRE 16 208 0 208
WIRE 80 256 80 208
WIRE 80 304 80 256
WIRE 16 320 0 320
WIRE 32 320 32 192
WIRE 32 320 16 320
FLAG -80 -16 0
FLAG -80 96 0
FLAG 16 -16 a
FLAG 16 96 b
FLAG 80 448 0
FLAG 112 128 Q
FLAG 112 160 _Q
FLAG -80 208 0
FLAG -80 320 0
FLAG 16 208 c
FLAG 16 320 d
FLAG 80 256 x[1:0]
FLAG 96 336 0
FLAG 224 256 x
SYMBOL voltage 16 -16 R90
WINDOW 0 -32 56 VBottom 2
WINDOW 3 32 56 Invisible 2
WINDOW 123 0 0 Left 0
WINDOW 39 0 0 Left 0
SYMATTR InstName V1
SYMATTR Value PULSE(0 1 1u 1n 1n 1u 2u)
SYMBOL voltage 16 96 R90
WINDOW 0 -32 56 VBottom 2
WINDOW 3 32 56 Invisible 2
WINDOW 123 0 0 Left 0
WINDOW 39 0 0 Left 0
SYMATTR InstName V2
SYMATTR Value PULSE(0 1 9u 1n 1n 9u 10u)
SYMBOL voltage 80 352 M0
WINDOW 3 24 96 Invisible 2
WINDOW 123 0 0 Left 0
WINDOW 39 0 0 Left 0
SYMATTR Value PULSE(0 1 30u 1n 1n 30u 60u)
SYMATTR InstName V3
SYMBOL voltage 16 208 R90
WINDOW 0 -32 56 VBottom 2
WINDOW 3 32 56 Invisible 2
WINDOW 123 0 0 Left 0
WINDOW 39 0 0 Left 0
SYMATTR InstName V4
SYMATTR Value PULSE(1 0 3u 1n 1n 3u 5u)
SYMBOL voltage 16 320 R90
WINDOW 0 -32 56 VBottom 2
WINDOW 3 32 56 Invisible 2
WINDOW 123 0 0 Left 0
WINDOW 39 0 0 Left 0
SYMATTR InstName V5
SYMATTR Value PULSE(0 1 0.5u 1n 1n 2u 11u)
SYMBOL up_2bitcounter 80 336 R270
WINDOW 0 4 60 Bottom 2
SYMATTR InstName X2
SYMBOL dac-2bit-fast 144 256 R0
SYMATTR InstName X3
SYMBOL mux-1bit-4to1-gray 80 144 R0
SYMATTR InstName X1
TEXT -88 376 Left 2 !.tran 240u
