Version 4
SHEET 1 880 680
WIRE 144 112 96 112
WIRE 192 112 144 112
FLAG 144 112 a[2:0]
FLAG 256 112 Q[2:0]
FLAG -48 112 0
FLAG 160 240 0
FLAG 224 240 0
FLAG 160 160 a
FLAG 224 160 Q
FLAG 64 128 0
SYMBOL voltage 48 112 M270
WINDOW 3 24 96 Invisible 2
WINDOW 123 0 0 Left 0
WINDOW 39 0 0 Left 0
SYMATTR Value PULSE(0 1 1u 0 0 1u 2u)
SYMATTR InstName V2
SYMBOL bv 160 144 M0
WINDOW 3 24 96 Invisible 2
SYMATTR Value V=V(a[0])+2*V(a[1])+4*V(a[2])
SYMATTR InstName B1
SYMBOL bv 224 144 R0
WINDOW 3 24 96 Invisible 2
SYMATTR Value V=V(Q[0])+2*V(Q[1])+4*V(Q[2])
SYMATTR InstName B2
SYMBOL bin2gray_3bit 224 112 R0
SYMATTR InstName X1
SYMBOL up_3bitcounter 64 112 R0
SYMATTR InstName X2
TEXT -24 184 Left 2 !.tran 16u
