Version 4
SHEET 1 880 680
WIRE 64 32 48 32
WIRE 80 32 64 32
WIRE 112 144 112 96
WIRE 112 192 112 144
FLAG -32 32 0
FLAG 64 32 in
FLAG 96 416 0
FLAG 256 144 x
FLAG 144 -16 Q[0]
FLAG 144 16 Q[1]
FLAG 144 48 Q[2]
FLAG 144 80 Q[3]
FLAG 128 336 0
FLAG 112 144 x[1:0]
SYMBOL voltage 96 320 M0
WINDOW 3 24 96 Invisible 2
WINDOW 123 0 0 Left 0
WINDOW 39 0 0 Left 0
SYMATTR Value PULSE(0 1 30u 1n 1n 30u 60u)
SYMATTR InstName V3
SYMBOL voltage 64 32 R90
WINDOW 0 -32 56 VBottom 2
WINDOW 3 32 56 VTop 2
SYMATTR InstName V1
SYMATTR Value 1
SYMBOL demux-1bit-1to4 112 32 R0
SYMATTR InstName X1
SYMBOL up_2bitcounter 112 272 R270
SYMATTR InstName X2
SYMBOL dac-2bit-fast 176 144 R0
SYMATTR InstName X3
TEXT -56 120 Left 2 !.tran 240u
