Version 4
SHEET 1 880 680
WIRE -16 -16 -64 -16
WIRE 32 -16 -16 -16
WIRE -16 96 -64 96
WIRE 32 96 32 -16
WIRE 48 96 32 96
WIRE -16 128 -16 96
WIRE 48 128 -16 128
WIRE 160 128 112 128
WIRE 208 128 160 128
WIRE 48 160 -16 160
WIRE 48 192 32 192
WIRE -16 208 -16 160
WIRE -16 208 -64 208
WIRE 80 256 80 208
WIRE 80 304 80 256
WIRE -16 320 -64 320
WIRE 32 320 32 192
WIRE 32 320 -16 320
FLAG -208 -16 0
FLAG -208 96 0
FLAG -16 -16 a[7:0]
FLAG -16 96 b[7:0]
FLAG 80 448 0
FLAG 160 128 Q[7:0]
FLAG 112 160 _Q[7:0]
FLAG -208 208 0
FLAG -208 320 0
FLAG -16 208 c[7:0]
FLAG -16 320 d[7:0]
FLAG 80 256 x[1:0]
FLAG 96 336 0
FLAG 224 256 x
FLAG -96 336 0
FLAG -96 224 0
FLAG -96 112 0
FLAG -96 0 0
FLAG 352 128 Q
FLAG 352 304 a
FLAG 208 304 a[7:0]
FLAG 352 368 b
FLAG 208 368 b[7:0]
FLAG 352 432 c
FLAG 208 432 c[7:0]
FLAG 352 496 d
FLAG 208 496 d[7:0]
SYMBOL voltage -112 -16 R90
WINDOW 0 -32 56 VBottom 2
WINDOW 3 32 56 Invisible 2
WINDOW 123 0 0 Left 0
WINDOW 39 0 0 Left 0
SYMATTR InstName V1
SYMATTR Value PULSE(0 1 1u 1n 1n 1u 2u)
SYMBOL voltage -112 96 R90
WINDOW 0 -32 56 VBottom 2
WINDOW 3 32 56 Invisible 2
WINDOW 123 0 0 Left 0
WINDOW 39 0 0 Left 0
SYMATTR InstName V2
SYMATTR Value PULSE(0 1 9u 1n 1n 9u 10u)
SYMBOL voltage 80 352 M0
WINDOW 3 24 96 Invisible 2
WINDOW 123 0 0 Left 0
WINDOW 39 0 0 Left 0
SYMATTR Value PULSE(0 1 2m 1n 1n 2m 4m)
SYMATTR InstName V3
SYMBOL voltage -112 208 R90
WINDOW 0 -32 56 VBottom 2
WINDOW 3 32 56 Invisible 2
WINDOW 123 0 0 Left 0
WINDOW 39 0 0 Left 0
SYMATTR InstName V4
SYMATTR Value PULSE(1 0 3u 1n 1n 3u 5u)
SYMBOL voltage -112 320 R90
WINDOW 0 -32 56 VBottom 2
WINDOW 3 32 56 Invisible 2
WINDOW 123 0 0 Left 0
WINDOW 39 0 0 Left 0
SYMATTR InstName V5
SYMATTR Value PULSE(0 1 0.5u 1n 1n 2u 16u)
SYMBOL up_2bitcounter 80 336 R270
WINDOW 0 4 60 Bottom 2
SYMATTR InstName X2
SYMBOL dac-2bit-fast 144 256 R0
SYMATTR InstName X3
SYMBOL up_8bitcounter -96 -16 R0
SYMATTR InstName X4
SYMBOL up_8bitcounter -96 96 R0
SYMATTR InstName X5
SYMBOL up_8bitcounter -96 208 R0
SYMATTR InstName X6
SYMBOL up_8bitcounter -96 320 R0
SYMATTR InstName X7
SYMBOL mux-8bit-4to1 80 144 R0
SYMATTR InstName X1
SYMBOL dac-8bit-fast 272 128 R0
SYMATTR InstName X8
SYMBOL dac-8bit-fast 272 304 R0
SYMATTR InstName X9
SYMBOL dac-8bit-fast 272 368 R0
SYMATTR InstName X10
SYMBOL dac-8bit-fast 272 432 R0
SYMATTR InstName X11
SYMBOL dac-8bit-fast 272 496 R0
SYMATTR InstName X12
TEXT -88 376 Left 2 !.tran 16m
