Version 4
SHEET 1 880 680
WIRE 80 80 32 80
WIRE 80 112 80 80
WIRE 112 112 80 112
WIRE 224 112 176 112
WIRE 272 112 224 112
WIRE 112 144 80 144
WIRE 80 176 80 144
WIRE 80 176 32 176
WIRE 144 176 144 160
WIRE 144 192 144 176
FLAG -112 80 0
FLAG -112 176 0
FLAG 80 80 a[7:0]
FLAG 80 176 b[7:0]
FLAG 144 272 0
FLAG 144 176 c
FLAG 224 112 Q[7:0]
FLAG 176 144 _Q[7:0]
FLAG 0 96 0
FLAG 0 192 0
FLAG 416 112 Q
FLAG 416 176 A
FLAG 416 240 B
FLAG 272 176 a[7:0]
FLAG 272 240 b[7:0]
SYMBOL voltage -16 80 R90
WINDOW 0 -32 56 VBottom 2
WINDOW 3 32 56 Invisible 2
WINDOW 123 0 0 Left 0
WINDOW 39 0 0 Left 0
SYMATTR InstName V1
SYMATTR Value PULSE(0 1 1u 1n 1n 1u 2u)
SYMBOL voltage -16 176 R90
WINDOW 0 -32 56 VBottom 2
WINDOW 3 32 56 Invisible 2
WINDOW 123 0 0 Left 0
WINDOW 39 0 0 Left 0
SYMATTR InstName V2
SYMATTR Value PULSE(0 1 3u 1n 1n 3u 6u)
SYMBOL voltage 144 176 R0
WINDOW 3 24 96 Invisible 2
WINDOW 123 0 0 Left 0
WINDOW 39 0 0 Left 0
SYMATTR Value PULSE(0 1 2m 1n 1n 2m 4m)
SYMATTR InstName V3
SYMBOL up_8bitcounter 0 80 R0
SYMATTR InstName X2
SYMBOL up_8bitcounter 0 176 R0
SYMATTR InstName X3
SYMBOL mux-8bit-2to1 144 128 R0
SYMATTR InstName X1
SYMBOL dac-8bit-fast 336 112 R0
SYMATTR InstName X4
SYMBOL dac-8bit-fast 336 176 R0
SYMATTR InstName X5
SYMBOL dac-8bit-fast 336 240 R0
SYMATTR InstName X6
TEXT -16 256 Left 2 !.tran 4m
