Version 4
SHEET 1 880 684
WIRE -32 -304 -48 -304
WIRE 32 -304 -32 -304
WIRE -32 -192 -48 -192
WIRE 16 -192 -32 -192
WIRE -32 -80 -48 -80
WIRE 0 -80 -32 -80
WIRE 32 -32 32 -304
WIRE 48 -32 32 -32
WIRE 16 0 16 -192
WIRE 48 0 16 0
WIRE -32 32 -48 32
WIRE -16 32 -32 32
WIRE 0 32 0 -80
WIRE 48 32 0 32
WIRE -16 64 -16 32
WIRE 48 64 -16 64
WIRE 48 96 -16 96
WIRE 48 128 0 128
WIRE -32 144 -48 144
WIRE -16 144 -16 96
WIRE -16 144 -32 144
WIRE 48 160 16 160
WIRE 48 192 32 192
WIRE -32 256 -48 256
WIRE 0 256 0 128
WIRE 0 256 -32 256
WIRE 80 256 80 208
WIRE 80 304 80 256
WIRE -32 368 -48 368
WIRE 16 368 16 160
WIRE 16 368 -32 368
WIRE -32 480 -48 480
WIRE 32 480 32 192
WIRE 32 480 -32 480
FLAG -128 -304 0
FLAG -128 -192 0
FLAG -32 -304 a
FLAG -32 -192 b
FLAG 64 528 0
FLAG 112 64 Q
FLAG 112 96 _Q
FLAG -128 -80 0
FLAG -128 32 0
FLAG -32 -80 c
FLAG -32 32 d
FLAG 80 256 x[2:0]
FLAG 96 448 0
FLAG 224 256 x
FLAG -128 144 0
FLAG -128 256 0
FLAG -32 144 e
FLAG -32 256 f
FLAG -128 368 0
FLAG -128 480 0
FLAG -32 368 g
FLAG -32 480 h
SYMBOL voltage -32 -304 R90
WINDOW 0 -32 56 VBottom 2
WINDOW 3 32 56 Invisible 2
WINDOW 123 0 0 Left 0
WINDOW 39 0 0 Left 0
SYMATTR InstName V1
SYMATTR Value PULSE(0 1 1u 1n 1n 1u 2u)
SYMBOL voltage -32 -192 R90
WINDOW 0 -32 56 VBottom 2
WINDOW 3 32 56 Invisible 2
WINDOW 123 0 0 Left 0
WINDOW 39 0 0 Left 0
SYMATTR InstName V2
SYMATTR Value PULSE(0 1 9u 1n 1n 9u 10u)
SYMBOL voltage 64 432 M0
WINDOW 3 24 96 Invisible 2
WINDOW 123 0 0 Left 0
WINDOW 39 0 0 Left 0
WINDOW 0 27 83 Left 2
SYMATTR Value PULSE(0 1 90u 1n 1n 90u 180u)
SYMATTR InstName V3
SYMBOL voltage -32 -80 R90
WINDOW 0 -32 56 VBottom 2
WINDOW 3 32 56 Invisible 2
WINDOW 123 0 0 Left 0
WINDOW 39 0 0 Left 0
SYMATTR InstName V4
SYMATTR Value PULSE(1 0 3u 1n 1n 3u 5u)
SYMBOL voltage -32 32 R90
WINDOW 0 -32 56 VBottom 2
WINDOW 3 32 56 Invisible 2
WINDOW 123 0 0 Left 0
WINDOW 39 0 0 Left 0
SYMATTR InstName V5
SYMATTR Value PULSE(0 1 0.5u 1n 1n 2u 11u)
SYMBOL mux-1bit-8to1 80 80 R0
SYMATTR InstName X1
SYMBOL dac-3bit-fast 144 256 R0
SYMATTR InstName X3
SYMBOL up_3bitcounter 80 384 R270
WINDOW 0 3 62 Bottom 2
SYMATTR InstName X2
SYMBOL voltage -32 144 R90
WINDOW 0 -32 56 VBottom 2
WINDOW 3 32 56 Invisible 2
WINDOW 123 0 0 Left 0
WINDOW 39 0 0 Left 0
SYMATTR InstName V6
SYMATTR Value PULSE(0 1 0.2u 1n 1n 0.2u 7u)
SYMBOL voltage -32 256 R90
WINDOW 0 -32 56 VBottom 2
WINDOW 3 32 56 Invisible 2
WINDOW 123 0 0 Left 0
WINDOW 39 0 0 Left 0
SYMATTR InstName V7
SYMATTR Value PULSE(0 1 12u 1n 1n 12u 24u)
SYMBOL voltage -32 368 R90
WINDOW 0 -32 56 VBottom 2
WINDOW 3 32 56 Invisible 2
WINDOW 123 0 0 Left 0
WINDOW 39 0 0 Left 0
SYMATTR InstName V8
SYMATTR Value PULSE(1 0 10u 1n 1n 10u 20u)
SYMBOL voltage -32 480 R90
WINDOW 0 -32 56 VBottom 2
WINDOW 3 32 56 Invisible 2
WINDOW 123 0 0 Left 0
WINDOW 39 0 0 Left 0
SYMATTR InstName V9
SYMATTR Value PULSE(0 1 24u 1n 1n 24u 32u)
TEXT 120 432 Left 2 !.tran 1.6m
