Version 4
SHEET 1 880 680
WIRE -96 160 -144 160
WIRE -16 160 -32 160
WIRE 16 160 -16 160
WIRE 64 160 64 128
WIRE 64 160 16 160
WIRE -144 176 -144 160
WIRE -16 208 -16 160
WIRE 0 208 -16 208
FLAG -64 176 0
FLAG -144 256 0
FLAG 16 160 in[1:0]
FLAG 112 16 a
FLAG 112 48 b
FLAG 112 80 c
FLAG 112 112 d
FLAG 144 208 in
SYMBOL decoder_2bit 64 64 R0
SYMATTR InstName X1
SYMBOL up_2bitcounter -64 160 R0
SYMATTR InstName X2
SYMBOL voltage -144 160 M0
WINDOW 3 24 96 Invisible 2
WINDOW 123 0 0 Left 0
WINDOW 39 0 0 Left 0
SYMATTR Value PULSE(0 1 1u 0 0 1u 2u)
SYMATTR InstName V1
SYMBOL dac-2bit-fast 64 208 R0
SYMATTR InstName X3
TEXT -16 232 Left 2 !.tran 10u
