Version 4
SHEET 1 880 680
WIRE 64 128 48 128
WIRE 80 128 64 128
WIRE 112 176 112 160
WIRE 112 192 112 176
FLAG -32 128 0
FLAG 64 128 in
FLAG 112 272 0
FLAG 112 176 x
FLAG 144 112 Q[0]
FLAG 144 144 Q[1]
SYMBOL voltage 112 176 R0
WINDOW 3 24 96 Invisible 2
WINDOW 123 0 0 Left 0
WINDOW 39 0 0 Left 0
SYMATTR Value PULSE(0 1 30u 1n 1n 30u 60u)
SYMATTR InstName V3
SYMBOL voltage 64 128 R90
WINDOW 0 -32 56 VBottom 2
WINDOW 3 32 56 VTop 2
SYMATTR InstName V1
SYMATTR Value 1
SYMBOL demux-1bit-1to2 112 128 R0
SYMATTR InstName X1
TEXT -32 256 Left 2 !.tran 60u
