Version 4
SHEET 1 880 680
WIRE 96 80 80 80
WIRE 96 112 96 80
WIRE 112 112 96 112
WIRE 112 144 96 144
WIRE 96 176 96 144
WIRE 96 176 80 176
WIRE 128 176 128 160
WIRE 128 192 128 176
FLAG 0 80 0
FLAG 0 176 0
FLAG 96 80 a
FLAG 96 176 b
FLAG 128 272 0
FLAG 128 176 c
FLAG 144 112 Q
FLAG 144 144 _Q
SYMBOL voltage 96 80 R90
WINDOW 0 -32 56 VBottom 2
WINDOW 3 32 56 Invisible 2
WINDOW 123 0 0 Left 0
WINDOW 39 0 0 Left 0
SYMATTR InstName V1
SYMATTR Value PULSE(0 1 1u 1n 1n 1u 2u)
SYMBOL voltage 96 176 R90
WINDOW 0 -32 56 VBottom 2
WINDOW 3 32 56 Invisible 2
WINDOW 123 0 0 Left 0
WINDOW 39 0 0 Left 0
SYMATTR InstName V2
SYMATTR Value PULSE(0 1 5u 1n 1n 5u 10u)
SYMBOL voltage 128 176 R0
WINDOW 3 24 96 Invisible 2
WINDOW 123 0 0 Left 0
WINDOW 39 0 0 Left 0
SYMATTR InstName V3
SYMATTR Value PULSE(0 1 30u 1n 1n 30u 60u)
SYMBOL mux-1bit-2to1 128 128 R0
SYMATTR InstName X1
TEXT -12 256 Left 2 !.tran 60u
