Version 4
SHEET 1 880 680
WIRE -384 0 -432 0
WIRE -336 0 -384 0
WIRE -384 64 -432 64
WIRE -336 64 -384 64
FLAG -576 64 0
FLAG -576 0 0
FLAG -384 0 B[7:0]
FLAG -272 32 Q[7:0]
FLAG -384 64 P[1:0]
FLAG -464 16 0
FLAG -464 80 0
FLAG -400 176 Q[7:0]
FLAG -400 112 B[7:0]
FLAG -400 144 P[1:0]
FLAG -256 112 B
FLAG -256 144 P
FLAG -256 176 Q
FLAG -352 256 expected
FLAG -432 256 0
FLAG -512 256 eraw
FLAG -592 256 0
SYMBOL voltage -480 64 M270
WINDOW 123 0 0 Left 0
WINDOW 39 0 0 Left 0
WINDOW 0 17 110 Left 2
WINDOW 3 24 96 Invisible 2
SYMATTR InstName V2
SYMATTR Value PULSE(0 1 256u 1n 1n 256u 512u)
SYMBOL voltage -480 0 M270
WINDOW 123 0 0 Left 0
WINDOW 39 0 0 Left 0
WINDOW 0 18 110 Left 2
WINDOW 3 24 96 Invisible 2
SYMATTR InstName V7
SYMATTR Value PULSE(0 1 0.5u 1n 1n 0.5u 1u)
SYMBOL lshift-8bit-2bit -304 32 R0
SYMATTR InstName X1
SYMBOL up_8bitcounter -464 0 R0
SYMATTR InstName X2
SYMBOL up_2bitcounter -464 64 R0
WINDOW 0 0 -17 Bottom 0
SYMATTR InstName X3
SYMBOL dac-2bit-fast -336 144 R0
WINDOW 0 38 7 Bottom 0
SYMATTR InstName X4
SYMBOL dac-8bit-fast -336 112 R0
WINDOW 0 37 5 Bottom 0
SYMATTR InstName X5
SYMBOL dac-8bit-fast -336 176 R0
WINDOW 0 37 4 Bottom 0
SYMATTR InstName X6
SYMBOL bv -336 256 R90
WINDOW 0 -32 56 VBottom 2
WINDOW 3 32 56 Invisible 2
SYMATTR InstName B1
SYMATTR Value V=V(eraw)-int((V(eraw)+0.5)/256)*256
SYMBOL bv -496 256 R90
WINDOW 0 -32 56 VBottom 2
WINDOW 3 32 56 Invisible 2
SYMATTR InstName B2
SYMATTR Value V=V(B)*(2**V(P))
TEXT -432 -48 Left 2 !.tran 2m
