Version 4
SHEET 1 880 680
WIRE -912 32 -960 32
WIRE -960 48 -960 32
FLAG -960 128 0
FLAG -960 32 clk
FLAG -848 32 B[3:0]
FLAG -880 192 B[1]
FLAG -880 128 B[0]
FLAG -864 112 B[2]
FLAG -816 128 co
FLAG -816 160 s
FLAG -880 48 0
SYMBOL voltage -960 32 M0
WINDOW 123 0 0 Left 0
WINDOW 39 0 0 Left 0
WINDOW 3 24 96 Left 0
SYMATTR InstName V5
SYMATTR Value PULSE(0 1 25u 1n 1n 25u 50u)
SYMBOL adder -848 160 R0
SYMATTR InstName X2
SYMBOL up_4bitcounter -880 32 R0
SYMATTR InstName X1
TEXT -960 224 Left 2 !.tran 400u
