Version 4
SHEET 1 880 680
WIRE -912 32 -960 32
WIRE -960 48 -960 32
FLAG -960 128 0
FLAG -960 32 clk
FLAG -848 32 B[3:0]
FLAG -848 144 B[3:2]
FLAG -848 80 B[1:0]
FLAG -784 80 co
FLAG -784 112 s[1:0]
FLAG -880 48 0
FLAG -848 192 B[1:0]
FLAG -848 224 B[3:2]
FLAG -848 256 s[1:0]
FLAG -704 192 a
FLAG -704 224 b
FLAG -704 256 s
FLAG -1104 80 0
FLAG -1104 0 L
FLAG -832 64 L
SYMBOL voltage -960 32 M0
WINDOW 123 0 0 Left 0
WINDOW 39 0 0 Left 0
SYMATTR InstName V5
SYMATTR Value PULSE(0 1 25u 1n 1n 25u 50u)
SYMBOL adder-2bit -816 112 R0
SYMATTR InstName X2
SYMBOL up_4bitcounter -880 32 R0
SYMATTR InstName X1
SYMBOL dac-2bit-fast -784 192 R0
WINDOW 0 39 7 Bottom 0
SYMATTR InstName X3
SYMBOL dac-2bit-fast -784 224 R0
WINDOW 0 39 7 Bottom 0
SYMATTR InstName X4
SYMBOL dac-2bit-fast -784 256 R0
WINDOW 0 39 7 Bottom 0
SYMATTR InstName X5
SYMBOL voltage -1104 -16 M0
SYMATTR InstName V1
SYMATTR Value 0
TEXT -1152 168 Left 2 !.tran 800u
