Version 4
SHEET 1 880 680
WIRE 80 176 32 176
WIRE 128 176 80 176
WIRE 96 208 80 208
WIRE 128 208 96 208
FLAG 80 176 in[4:0]
FLAG 80 288 0
FLAG 96 208 clk
FLAG 304 176 Q[4:0]
FLAG 192 288 Q[4:0]
FLAG 336 288 Q
SYMBOL accum_buf_5bit 208 192 R0
SYMATTR InstName X1
SYMBOL voltage 80 192 M0
WINDOW 3 24 96 Invisible 2
WINDOW 123 0 0 Left 0
WINDOW 39 0 0 Left 0
SYMATTR Value PULSE(0 1 1u 0 0 1u 2u)
SYMATTR InstName V1
SYMBOL val-5bit 16 176 R0
WINDOW 39 0 20 Bottom 0
SYMATTR InstName X2
SYMATTR SpiceLine v=3
SYMBOL dac-5bit-fast 256 288 R0
WINDOW 0 2 40 Bottom 2
SYMATTR InstName X3
TEXT 240 248 Left 2 !.tran 32u
