Version 4
SHEET 1 880 680
WIRE -912 32 -960 32
WIRE -960 48 -960 32
FLAG -960 128 0
FLAG -960 32 clk
FLAG -848 32 B[15:0]
FLAG -1072 16 L
FLAG -1072 96 0
FLAG -832 144 B[15:8]
FLAG -832 80 B[7:0]
FLAG -768 80 co
FLAG -768 112 s[7:0]
FLAG -816 64 L
FLAG -880 48 L
FLAG -720 192 a
FLAG -720 224 b
FLAG -720 256 s
FLAG -864 192 B[7:0]
FLAG -864 224 B[15:8]
FLAG -864 256 s[7:0]
FLAG -864 336 0
FLAG -784 336 raw
FLAG -1120 208 0
FLAG -1120 304 0
FLAG -1040 208 s_exp
FLAG -1040 304 c_exp
SYMBOL voltage -960 32 M0
WINDOW 123 0 0 Left 0
WINDOW 39 0 0 Left 0
WINDOW 3 24 96 Invisible 2
SYMATTR InstName V5
SYMATTR Value PULSE(0 1 25u 1n 1n 25u 50u)
SYMBOL voltage -1072 0 R0
SYMATTR InstName V1
SYMATTR Value 0
SYMBOL adder-8bit -800 112 R0
SYMATTR InstName X2
SYMBOL up_16bitcounter -880 32 R0
SYMATTR InstName X1
SYMBOL dac-8bit-fast -800 192 R0
WINDOW 0 38 6 Bottom 0
SYMATTR InstName X3
SYMBOL dac-8bit-fast -800 224 R0
WINDOW 0 38 6 Bottom 0
SYMATTR InstName X4
SYMBOL dac-8bit-fast -800 256 R0
WINDOW 0 38 6 Bottom 0
SYMATTR InstName X5
SYMBOL bv -768 336 R90
WINDOW 0 -32 56 VBottom 2
WINDOW 3 32 56 Invisible 2
SYMATTR InstName B1
SYMATTR Value V=V(A)+V(B)
SYMBOL bv -1024 208 R90
WINDOW 0 -32 56 VBottom 2
WINDOW 3 32 56 Invisible 2
SYMATTR InstName B2
SYMATTR Value V=V(raw)-int((V(raw)+0.5)/256)*256
SYMBOL bv -1024 304 R90
WINDOW 0 -32 56 VBottom 2
WINDOW 3 32 56 Invisible 2
SYMATTR InstName B3
SYMATTR Value V=V(raw)>255.5
TEXT -1152 128 Left 2 !.tran 3.2768
