Version 4
SHEET 1 880 680
WIRE -912 32 -960 32
WIRE -800 32 -848 32
WIRE -752 32 -800 32
WIRE -672 32 -720 32
WIRE -624 32 -672 32
WIRE -960 48 -960 32
WIRE -800 96 -800 32
WIRE -624 96 -800 96
FLAG -960 128 0
FLAG -960 32 clk
FLAG -800 32 B[4:0]
FLAG -1072 16 L
FLAG -1072 96 0
FLAG -672 32 s[4:0]
FLAG -880 48 L
FLAG -480 96 in
FLAG -480 32 out
SYMBOL voltage -960 32 M0
WINDOW 123 0 0 Left 0
WINDOW 39 0 0 Left 0
WINDOW 3 24 96 Left 0
SYMATTR Value PULSE(0 1 25u 1n 1n 25u 50u)
SYMATTR InstName V5
SYMBOL voltage -1072 0 R0
SYMATTR InstName V1
SYMATTR Value 0
SYMBOL up_5bitcounter -880 32 R0
SYMATTR InstName X1
SYMBOL dac-signed-5bit-fast -560 32 R0
SYMATTR InstName X3
SYMBOL dac-signed-5bit-fast -560 96 R0
SYMATTR InstName X4
SYMBOL negate-5bit-fast -736 32 R0
SYMATTR InstName X2
TEXT -1120 168 Left 2 !.tran 1.6m
