Version 4
SHEET 1 880 680
WIRE -912 32 -960 32
WIRE -960 48 -960 32
FLAG -960 128 0
FLAG -960 32 clk
FLAG -848 32 B[7:0]
FLAG -1072 16 L
FLAG -1072 96 0
FLAG -848 144 B[7:4]
FLAG -848 80 B[3:0]
FLAG -784 80 co
FLAG -784 112 s[3:0]
FLAG -832 64 L
FLAG -880 48 L
FLAG -896 192 B[3:0]
FLAG -896 224 B[7:4]
FLAG -896 256 s[3:0]
FLAG -752 192 A
FLAG -752 224 B
FLAG -752 256 S
FLAG -1136 240 0
FLAG -1136 336 0
FLAG -1056 240 s_exp
FLAG -1056 336 c_exp
FLAG -912 336 0
FLAG -832 336 raw
SYMBOL voltage -960 32 M0
WINDOW 123 0 0 Left 0
WINDOW 39 0 0 Left 0
WINDOW 3 24 96 Left 0
SYMATTR InstName V5
SYMATTR Value PULSE(0 1 25u 1n 1n 25u 50u)
SYMBOL voltage -1072 0 R0
SYMATTR InstName V1
SYMATTR Value 0
SYMBOL adder-4bit -816 112 R0
SYMATTR InstName X2
SYMBOL up_8bitcounter -880 32 R0
SYMATTR InstName X1
SYMBOL dac-4bit-fast -832 192 R0
WINDOW 0 36 6 Bottom 0
SYMATTR InstName X3
SYMBOL dac-4bit-fast -832 224 R0
WINDOW 0 36 6 Bottom 0
SYMATTR InstName X4
SYMBOL dac-4bit-fast -832 256 R0
WINDOW 0 36 6 Bottom 0
SYMATTR InstName X5
SYMBOL bv -1040 240 R90
WINDOW 0 -32 56 VBottom 2
WINDOW 3 32 56 Invisible 2
SYMATTR InstName B1
SYMATTR Value V=V(raw)-int((V(raw)+0.5)/16)*16
SYMBOL bv -1040 336 R90
WINDOW 0 -32 56 VBottom 2
WINDOW 3 32 56 Invisible 2
SYMATTR InstName B2
SYMATTR Value V=V(raw)>15.5
SYMBOL bv -816 336 R90
WINDOW 0 -32 56 VBottom 2
WINDOW 3 32 56 Invisible 2
SYMATTR InstName B3
SYMATTR Value V=V(A)+V(B)
TEXT -1120 168 Left 2 !.tran 12.8m
