Version 4
SHEET 1 880 680
FLAG 144 160 Q
IOPIN 144 160 Out
FLAG 144 128 _Q
IOPIN 144 128 Out
FLAG 16 128 X[2:0]
IOPIN 16 128 In
FLAG 16 160 Y[2:0]
IOPIN 16 160 In
SYMBOL lt-eq-3bit 80 144 R0
SYMATTR InstName X1
