Version 4
SHEET 1 880 680
WIRE 64 64 16 64
WIRE 304 64 144 64
WIRE 64 96 16 96
WIRE 192 96 144 96
WIRE 64 128 16 128
WIRE 64 144 32 144
WIRE 144 144 128 144
WIRE 32 160 32 144
WIRE 32 160 16 160
WIRE 64 160 48 160
WIRE 48 176 48 160
WIRE 64 176 48 176
WIRE 176 176 144 176
WIRE 48 192 48 176
WIRE 64 192 48 192
WIRE 48 208 48 192
WIRE 64 208 48 208
WIRE 96 208 96 192
WIRE 96 208 64 208
WIRE 192 256 192 96
WIRE 304 256 304 64
WIRE 176 272 176 176
WIRE 192 272 176 272
WIRE 304 272 256 272
WIRE 192 288 144 288
WIRE 304 288 288 288
WIRE 192 304 176 304
WIRE 288 304 288 288
WIRE 304 304 288 304
WIRE 176 320 176 304
WIRE 192 320 176 320
WIRE 288 320 288 304
WIRE 304 320 288 320
WIRE 176 336 176 320
WIRE 192 336 176 336
WIRE 208 336 208 320
WIRE 208 336 192 336
WIRE 288 336 288 320
WIRE 304 336 288 336
WIRE 320 336 320 320
WIRE 320 336 304 336
FLAG 16 288 X[1:0]
IOPIN 16 288 In
FLAG 16 320 Y[1:0]
IOPIN 16 320 In
FLAG 192 336 0
FLAG 256 304 0
FLAG 304 336 0
FLAG 368 272 Q
IOPIN 368 272 Out
FLAG 368 304 _Q
IOPIN 368 304 Out
FLAG 144 320 0
FLAG 144 144 0
FLAG 16 64 X[2]
FLAG 16 128 X[2]
FLAG 16 96 Y[2]
FLAG 16 160 Y[2]
FLAG 64 208 0
SYMBOL lt-2bit 80 304 R0
SYMATTR InstName X2
SYMBOL Digital\\and 224 224 R0
SYMATTR InstName A1
SYMBOL Digital\\or 336 224 R0
SYMATTR InstName A2
SYMBOL lt 96 80 R0
SYMATTR InstName X3
SYMBOL Digital\\xor 112 96 R0
SYMATTR InstName A3
TEXT 24 376 Left 2 ;.param tr=0.1n tf=tr
