Version 4
SHEET 1 880 680
WIRE 304 64 144 64
WIRE 192 96 144 96
WIRE 176 176 144 176
WIRE 192 256 192 96
WIRE 304 256 304 64
WIRE 176 272 176 176
WIRE 192 272 176 272
WIRE 304 272 256 272
WIRE 192 288 144 288
WIRE 304 288 288 288
WIRE 192 304 176 304
WIRE 288 304 288 288
WIRE 304 304 288 304
WIRE 176 320 176 304
WIRE 192 320 176 320
WIRE 288 320 288 304
WIRE 304 320 288 320
WIRE 176 336 176 320
WIRE 192 336 176 336
WIRE 208 336 208 320
WIRE 208 336 192 336
WIRE 288 336 288 320
WIRE 304 336 288 336
WIRE 320 336 320 320
WIRE 320 336 304 336
FLAG 16 64 X[4:2]
IOPIN 16 64 In
FLAG 16 288 X[1:0]
IOPIN 16 288 In
FLAG 16 176 X[4:2]
IOPIN 16 176 In
FLAG 16 96 Y[4:2]
IOPIN 16 96 In
FLAG 16 208 Y[4:2]
IOPIN 16 208 In
FLAG 16 320 Y[1:0]
IOPIN 16 320 In
FLAG 192 336 0
FLAG 256 304 0
FLAG 304 336 0
FLAG 368 272 Q
IOPIN 368 272 Out
FLAG 368 304 _Q
IOPIN 368 304 Out
FLAG 144 320 0
FLAG 144 208 0
SYMBOL lt-2bit 80 304 R0
SYMATTR InstName X2
SYMBOL Digital\\and 224 224 R0
SYMATTR InstName A1
SYMBOL Digital\\or 336 224 R0
SYMATTR InstName A2
SYMBOL lt-3bit 80 80 R0
SYMATTR InstName X1
SYMBOL eq-3bit 96 192 R0
SYMATTR InstName X3
TEXT 24 376 Left 2 ;.param tr=0.1n tf=tr
