Version 4
SHEET 1 880 680
WIRE 176 128 144 128
WIRE 176 224 176 128
WIRE 192 224 176 224
WIRE 192 240 144 240
WIRE 192 256 176 256
WIRE 176 272 176 256
WIRE 192 272 176 272
WIRE 176 288 176 272
WIRE 192 288 176 288
WIRE 176 304 176 288
WIRE 192 304 176 304
WIRE 208 304 208 288
WIRE 208 304 192 304
FLAG 16 240 X[2:0]
IOPIN 16 240 In
FLAG 16 272 Y[2:0]
IOPIN 16 272 In
FLAG 192 304 0
FLAG 256 240 Q
IOPIN 256 240 Out
FLAG 256 272 _Q
IOPIN 256 272 Out
FLAG 16 128 X[2:0]
IOPIN 16 128 In
FLAG 16 160 Y[2:0]
IOPIN 16 160 In
FLAG 144 272 0
FLAG 144 160 0
SYMBOL Digital\\or 224 192 R0
SYMATTR InstName A2
SYMBOL eq-3bit 96 144 R0
SYMATTR InstName X1
SYMBOL lt-3bit 80 256 R0
SYMATTR InstName X2
TEXT -72 304 Left 2 ;.param tr=0.1n tf=tr
