Version 4
SHEET 1 2236 680
WIRE 1680 -160 1040 -160
WIRE 1680 -80 1680 -160
WIRE 1680 -80 1664 -80
WIRE 1504 -32 1472 -32
WIRE 1040 -16 1040 -160
WIRE 1184 -16 1040 -16
WIRE 1184 16 1040 16
WIRE 1040 80 1040 16
WIRE 1376 80 1040 80
WIRE 1472 80 1472 -32
WIRE 1472 80 1440 80
WIRE 1488 80 1472 80
FLAG 1488 80 clk
IOPIN 1488 80 In
FLAG 1344 -16 O[31:0]
IOPIN 1344 -16 Out
FLAG 1184 -80 pre[31:0]
IOPIN 1184 -80 In
FLAG 1184 -48 set
IOPIN 1184 -48 In
FLAG 1440 96 0
FLAG 1504 16 0
FLAG 1584 16 0
FLAG 1584 -128 0
FLAG 1680 -32 0
FLAG 1504 -80 O[0]
SYMBOL Digital\\buf1 1440 16 M0
WINDOW 3 32 73 Left 0
SYMATTR Value td={td}
SYMATTR InstName A40
SYMBOL Digital\\dflop 1584 -128 R0
SYMATTR InstName A41
SYMBOL shift_reg-1bit-32len 1264 -32 R0
WINDOW 39 -2 83 Bottom 1
SYMATTR InstName X1
SYMATTR SpiceLine td={td}
TEXT 1320 -192 Left 2 !.param td=10n
