Version 4
SHEET 1 1316 680
WIRE 256 96 256 80
WIRE 256 96 240 96
WIRE 272 96 256 96
WIRE 480 96 480 80
WIRE 480 96 464 96
WIRE 496 96 480 96
WIRE 704 96 704 80
WIRE 704 96 688 96
WIRE 720 96 704 96
WIRE 48 128 32 128
WIRE 272 128 256 128
WIRE 496 128 480 128
WIRE 720 128 704 128
WIRE 32 208 32 128
WIRE 176 208 32 208
WIRE 256 208 256 128
WIRE 256 208 240 208
WIRE 400 208 256 208
WIRE 480 208 480 128
WIRE 480 208 464 208
WIRE 624 208 480 208
WIRE 704 208 704 128
WIRE 704 208 688 208
FLAG 144 144 clr
IOPIN 144 144 In
FLAG 368 144 clr
IOPIN 368 144 In
FLAG 592 144 clr
IOPIN 592 144 In
FLAG 240 224 0
FLAG 464 224 0
FLAG 48 96 in[1:0]
IOPIN 48 96 In
FLAG 256 80 Q0[1:0]
IOPIN 256 80 Out
FLAG 480 80 Q1[1:0]
IOPIN 480 80 Out
FLAG 816 144 clr
IOPIN 816 144 In
FLAG 704 208 clk
IOPIN 704 208 In
FLAG 688 224 0
FLAG 912 96 Q3[1:0]
IOPIN 912 96 Out
FLAG 704 80 Q2[1:0]
IOPIN 704 80 Out
SYMBOL Digital\\buf1 240 144 M0
WINDOW 3 31 76 Left 0
SYMATTR Value td={td}
SYMATTR InstName A1
SYMBOL dbuf_2bit 144 112 R0
SYMATTR InstName X1
SYMBOL dbuf_2bit 368 112 R0
SYMATTR InstName X2
SYMBOL dbuf_2bit 592 112 R0
SYMATTR InstName X3
SYMBOL dbuf_2bit 816 112 R0
SYMATTR InstName X4
SYMBOL Digital\\buf1 464 144 M0
WINDOW 3 31 76 Left 0
SYMATTR Value td={td}
SYMATTR InstName A2
SYMBOL Digital\\buf1 688 144 M0
WINDOW 3 31 76 Left 0
SYMATTR Value td={td}
SYMATTR InstName A3
TEXT 768 208 Left 2 !.param td=2n
