Version 4
SHEET 1 908 680
FLAG 256 160 clr
IOPIN 256 160 In
FLAG 256 128 clk
IOPIN 256 128 In
FLAG 256 96 in[1:0]
IOPIN 256 96 In
FLAG 448 96 Q0[1:0]
FLAG 448 128 Q1[1:0]
FLAG 448 160 Q[1:0]
IOPIN 448 160 Out
SYMBOL shift_reg-2bit-3len-full 352 128 R0
SYMATTR InstName X1
