Version 4
SHEET 1 908 680
WIRE 256 96 256 80
WIRE 256 96 240 96
WIRE 272 96 256 96
WIRE 480 96 480 80
WIRE 480 96 464 96
WIRE 496 96 480 96
WIRE 48 128 32 128
WIRE 272 128 256 128
WIRE 496 128 480 128
WIRE 32 208 32 128
WIRE 176 208 32 208
WIRE 256 208 256 128
WIRE 256 208 240 208
WIRE 400 208 256 208
WIRE 480 208 480 128
WIRE 480 208 464 208
FLAG 144 144 clr
IOPIN 144 144 In
FLAG 368 144 clr
IOPIN 368 144 In
FLAG 592 144 clr
IOPIN 592 144 In
FLAG 240 224 0
FLAG 480 208 clk
IOPIN 480 208 In
FLAG 464 224 0
FLAG 48 96 in[1:0]
IOPIN 48 96 In
FLAG 688 96 Q2[1:0]
IOPIN 688 96 Out
FLAG 256 80 Q0[1:0]
IOPIN 256 80 Out
FLAG 480 80 Q1[1:0]
IOPIN 480 80 Out
SYMBOL Digital\\buf1 464 144 M0
WINDOW 3 32 73 Left 0
SYMATTR Value td=2n
SYMATTR InstName A2
SYMBOL dbuf_2bit 592 112 R0
SYMATTR InstName X1
SYMBOL dbuf_2bit 368 112 R0
SYMATTR InstName X2
SYMBOL dbuf_2bit 144 112 R0
SYMATTR InstName X3
SYMBOL Digital\\buf1 240 144 M0
WINDOW 3 32 73 Left 0
SYMATTR Value td=2n
SYMATTR InstName A1
