Version 4
SHEET 1 880 680
FLAG 96 176 b[0]
IOPIN 96 176 Out
FLAG 96 144 b[1]
IOPIN 96 144 Out
FLAG 96 112 b[2]
IOPIN 96 112 Out
FLAG 96 80 b[3]
IOPIN 96 80 Out
FLAG 96 48 b[4]
IOPIN 96 48 Out
FLAG 96 16 b[5]
IOPIN 96 16 Out
FLAG 96 -16 b[6]
IOPIN 96 -16 Out
FLAG 96 -48 b[7]
IOPIN 96 -48 Out
SYMBOL bit-extract 80 144 R0
WINDOW 0 9 0 Center 0
WINDOW 39 -2 0 Right 0
SYMATTR InstName X1
SYMATTR SpiceLine x={v} e=1
SYMBOL bit-extract 80 176 R0
WINDOW 0 9 0 Center 0
WINDOW 39 -2 0 Right 0
SYMATTR InstName X2
SYMATTR SpiceLine x={v} e=0
SYMBOL bit-extract 80 80 R0
WINDOW 0 9 0 Center 0
WINDOW 39 -2 0 Right 0
SYMATTR InstName X3
SYMATTR SpiceLine x={v} e=3
SYMBOL bit-extract 80 112 R0
WINDOW 0 9 0 Center 0
WINDOW 39 -2 0 Right 0
SYMATTR InstName X4
SYMATTR SpiceLine x={v} e=2
SYMBOL bit-extract 80 48 R0
WINDOW 0 9 0 Center 0
WINDOW 39 -2 0 Right 0
SYMATTR InstName X5
SYMATTR SpiceLine x={v} e=4
SYMBOL bit-extract 80 -16 R0
WINDOW 0 9 0 Center 0
WINDOW 39 -2 0 Right 0
SYMATTR InstName X6
SYMATTR SpiceLine x={v} e=6
SYMBOL bit-extract 80 16 R0
WINDOW 0 9 0 Center 0
WINDOW 39 -2 0 Right 0
SYMATTR InstName X7
SYMATTR SpiceLine x={v} e=5
SYMBOL bit-extract 80 -48 R0
WINDOW 0 9 0 Center 0
WINDOW 39 -2 0 Right 0
SYMATTR InstName X8
SYMATTR SpiceLine x={v} e=7
TEXT 40 200 Left 1 !.param v=0
