Version 4
SHEET 1 880 680
WIRE -192 112 -240 112
WIRE -112 112 -192 112
WIRE 32 112 -48 112
WIRE 80 112 32 112
WIRE -80 144 -80 128
WIRE -80 144 -176 144
WIRE 48 144 -32 144
WIRE 80 144 48 144
WIRE -32 160 -32 144
WIRE -32 160 -96 160
WIRE 48 176 32 176
WIRE 80 176 48 176
WIRE -240 192 -240 112
WIRE -176 192 -176 144
WIRE -96 208 -96 160
WIRE 32 208 32 176
WIRE -32 256 -48 256
WIRE 96 256 80 256
WIRE -112 272 -128 272
WIRE -32 272 -32 256
WIRE 16 272 0 272
WIRE 96 272 96 256
WIRE -128 288 -128 272
WIRE -96 288 -96 272
WIRE -80 288 -80 272
WIRE -64 288 -64 272
WIRE -64 288 -80 288
WIRE -48 288 -48 272
WIRE -48 288 -64 288
WIRE -32 288 -32 272
WIRE -32 288 -48 288
WIRE 0 288 0 272
WIRE 32 288 32 272
WIRE 48 288 48 272
WIRE 64 288 64 272
WIRE 64 288 48 288
WIRE 80 288 80 272
WIRE 80 288 64 288
WIRE 96 288 96 272
WIRE 96 288 80 288
FLAG 320 144 empty
FLAG 320 112 Q[1:0]
FLAG 32 112 in[1:0]
FLAG -192 112 ctr_clk
FLAG -240 272 0
FLAG -272 512 0
FLAG -208 512 0
FLAG 48 176 push
FLAG 48 144 pull
FLAG 160 384 0
FLAG 224 384 0
FLAG 160 304 in
FLAG 224 304 Q
FLAG -176 272 0
FLAG 320 176 full
FLAG -208 432 normpush
FLAG -272 432 normpull
FLAG -96 560 0
FLAG -32 560 0
FLAG -32 480 simpush
FLAG -96 480 simpull
FLAG -64 208 0
FLAG 64 208 0
FLAG -32 272 0
FLAG 96 272 0
FLAG -128 288 normpull
FLAG -96 288 simpull
FLAG 0 288 normpush
FLAG 32 288 simpush
FLAG 320 240 _has[3:0]
FLAG 320 208 ovalid
SYMBOL up_2bitcounter -80 112 R0
SYMATTR InstName X2
SYMBOL voltage -240 176 M0
WINDOW 3 24 96 Invisible 2
WINDOW 123 0 0 Left 0
WINDOW 39 0 0 Left 0
SYMATTR Value PULSE(0 1 0 0 0 1u 2u)
SYMATTR InstName V1
SYMBOL voltage -176 176 R0
WINDOW 3 24 96 Invisible 2
WINDOW 123 0 0 Left 0
WINDOW 39 0 0 Left 0
SYMATTR Value PULSE(0 1 10u 1n 1n 20u)
SYMATTR InstName V2
SYMBOL voltage -272 416 M0
WINDOW 3 24 96 Invisible 2
WINDOW 123 0 0 Left 0
WINDOW 39 0 0 Left 0
SYMATTR Value PULSE(0 1 16u 0 0 1u 2u 6)
SYMATTR InstName V3
SYMBOL voltage -208 416 R0
WINDOW 3 24 96 Invisible 2
WINDOW 123 0 0 Left 0
WINDOW 39 0 0 Left 0
SYMATTR Value PULSE(0 1 2.5u 0 0 1u 2u 6)
SYMATTR InstName V4
SYMBOL bv 160 288 M0
WINDOW 3 24 96 Invisible 2
SYMATTR Value V=V(in[0])+2*V(in[1])
SYMATTR InstName B1
SYMBOL bv 224 288 R0
WINDOW 3 24 96 Invisible 2
SYMATTR Value V=V(Q[0])+2*V(Q[1])
SYMATTR InstName B2
SYMBOL voltage -96 464 M0
WINDOW 3 24 96 Invisible 2
WINDOW 123 0 0 Left 0
WINDOW 39 0 0 Left 0
SYMATTR Value PULSE(0 1 32.5u 0 0 1u 2u 5)
SYMATTR InstName V5
SYMBOL voltage -32 464 R0
WINDOW 3 24 96 Invisible 2
WINDOW 123 0 0 Left 0
WINDOW 39 0 0 Left 0
SYMATTR Value PULSE(0 1 32.5u 0 0 1u 2u 5)
SYMATTR InstName V6
SYMBOL Digital\\or -144 240 R270
SYMATTR InstName A1
SYMBOL Digital\\or -16 240 R270
SYMATTR InstName A2
SYMBOL async_fifo-chk_2bit_4len 192 176 R0
SYMATTR InstName X1
TEXT 128 448 Left 2 !.tran 44u
