Version 4
SHEET 1 880 740
WIRE -416 128 -608 128
WIRE -288 128 -352 128
WIRE -224 128 -288 128
WIRE -80 128 -160 128
WIRE -16 128 -80 128
WIRE -608 144 -608 128
WIRE -80 160 -144 160
WIRE -16 160 -80 160
WIRE -384 192 -384 144
WIRE -80 224 -128 224
WIRE -16 224 -80 224
WIRE -576 352 -608 352
WIRE -448 352 -480 352
WIRE -416 352 -448 352
WIRE -288 352 -352 352
WIRE -224 352 -288 352
WIRE -144 352 -144 160
WIRE -144 352 -160 352
WIRE -608 368 -608 352
WIRE -576 560 -608 560
WIRE -448 560 -480 560
WIRE -416 560 -448 560
WIRE -288 560 -352 560
WIRE -224 560 -288 560
WIRE -128 560 -128 224
WIRE -128 560 -160 560
WIRE -608 576 -608 560
FLAG 208 192 dout[1:0]
FLAG -80 128 din[1:0]
FLAG -608 128 dclk
FLAG -608 224 0
FLAG -384 272 0
FLAG -608 352 write
FLAG -608 448 0
FLAG -80 160 wptr[1:0]
FLAG -608 560 read
FLAG -608 656 0
FLAG -80 224 rptr[1:0]
FLAG -16 192 write
FLAG -16 256 read
FLAG 176 480 0
FLAG 176 400 dout
FLAG 112 480 0
FLAG 112 400 din
FLAG 48 480 0
FLAG 48 400 rptr
FLAG -16 480 0
FLAG -16 400 wptr
FLAG -288 352 wbin[1:0]
FLAG -288 560 rbin[1:0]
FLAG -224 144 0
FLAG -288 128 draw[1:0]
FLAG -448 352 wclk
FLAG -448 560 rclk
FLAG -384 576 0
FLAG -384 368 0
SYMBOL voltage -608 128 M0
WINDOW 3 24 96 Invisible 2
WINDOW 123 0 0 Left 0
WINDOW 39 0 0 Left 0
SYMATTR Value PULSE(0 1 0.5u 0 0 1u 2u 4)
SYMATTR InstName V1
SYMBOL voltage -384 176 R0
WINDOW 3 24 96 Invisible 2
WINDOW 123 0 0 Left 0
WINDOW 39 0 0 Left 0
SYMATTR Value PULSE(0 1 10u 1n 1n 20u)
SYMATTR InstName V2
SYMBOL fifo3-mem_2bit_4len 96 192 R0
SYMATTR InstName X1
SYMBOL voltage -608 352 M0
WINDOW 3 24 96 Invisible 2
WINDOW 123 0 0 Left 0
WINDOW 39 0 0 Left 0
SYMATTR Value PULSE(0 1 0.5u 0 0 150n 2u 4)
SYMATTR InstName V3
SYMBOL voltage -608 560 M0
WINDOW 3 24 96 Invisible 2
WINDOW 123 0 0 Left 0
WINDOW 39 0 0 Left 0
SYMATTR Value PULSE(0 1 15u 0 0 150n 2u 4)
SYMATTR InstName V5
SYMBOL delay -528 352 R0
WINDOW 39 -1 43 Bottom 2
SYMATTR SpiceLine tdr=2n
SYMATTR InstName X7
SYMBOL bv 176 384 R0
WINDOW 3 24 96 Invisible 2
SYMATTR Value V=2*V(dout[1])+V(dout[0])
SYMATTR InstName B1
SYMBOL bv 112 384 R0
WINDOW 3 24 96 Invisible 2
SYMATTR Value V=2*V(din[1])+V(din[0])
SYMATTR InstName B2
SYMBOL bv 48 384 R0
WINDOW 3 24 96 Invisible 2
SYMATTR Value V=2*V(rbin[1])+V(rbin[0])
SYMATTR InstName B3
SYMBOL bv -16 384 R0
WINDOW 3 24 96 Invisible 2
SYMATTR Value V=2*V(wbin[1])+V(wbin[0])
SYMATTR InstName B4
SYMBOL up_2bitcounter -384 128 R0
SYMATTR InstName X2
SYMBOL Digital\\inv -224 64 R0
SYMATTR InstName A[1:0]
SYMBOL delay -528 560 R0
WINDOW 39 -1 43 Bottom 2
SYMATTR SpiceLine tdr=2n
SYMATTR InstName X8
SYMBOL bin2gray_2bit -192 352 R0
SYMATTR InstName X3
SYMBOL bin2gray_2bit -192 560 R0
SYMATTR InstName X4
SYMBOL up_2bitcounter -384 352 R0
SYMATTR InstName X5
SYMBOL up_2bitcounter -384 560 R0
SYMATTR InstName X6
TEXT 104 72 Left 2 !.tran 24u
