Version 4
SHEET 1 880 680
WIRE 32 16 16 16
WIRE 80 16 48 16
WIRE 112 16 80 16
WIRE 16 48 16 16
WIRE 32 48 16 48
WIRE 80 48 48 48
WIRE 112 48 80 48
WIRE -144 64 -160 64
WIRE -32 64 -80 64
WIRE 16 64 16 48
WIRE 16 64 -32 64
WIRE 256 64 208 64
WIRE 304 64 256 64
WIRE -160 80 -160 64
WIRE 16 80 16 64
WIRE 32 80 16 80
WIRE 80 80 48 80
WIRE 112 80 80 80
WIRE 16 112 16 80
WIRE 32 112 16 112
WIRE 80 112 48 112
WIRE 112 112 80 112
FLAG 256 64 Q[1:0]
FLAG 448 64 Q
FLAG -112 80 0
FLAG -160 160 0
FLAG -32 64 in[3:0]
FLAG 80 16 in[0]
FLAG 80 48 in[1]
FLAG 80 80 in[2]
FLAG 80 112 in[3]
BUSTAP 32 16 48 16
BUSTAP 32 48 48 48
BUSTAP 32 80 48 80
BUSTAP 32 112 48 112
SYMBOL dac-2bit-fast 368 64 R0
SYMATTR InstName X3
SYMBOL encoder_2bit 160 64 R0
SYMATTR InstName X1
SYMBOL voltage -160 64 M0
WINDOW 3 24 96 Invisible 2
WINDOW 123 0 0 Left 0
WINDOW 39 0 0 Left 0
SYMATTR InstName V1
SYMATTR Value PULSE(0 1 0.5u 1n 1n 0.5u 1u)
SYMBOL up_4bitcounter -112 64 R0
SYMATTR InstName X2
TEXT 216 96 Left 2 !.tran 10u
