Version 4
SHEET 1 880 680
WIRE 272 64 224 64
WIRE 320 64 272 64
WIRE 352 64 336 64
WIRE 480 96 480 80
WIRE 272 112 192 112
WIRE 320 112 272 112
WIRE 352 112 352 64
WIRE 352 112 336 112
WIRE 400 112 352 112
WIRE 464 112 400 112
WIRE 272 176 192 176
WIRE 320 176 272 176
WIRE 352 176 336 176
WIRE 400 176 352 176
WIRE 464 176 400 176
WIRE 272 224 224 224
WIRE 320 224 272 224
WIRE 352 224 352 176
WIRE 352 224 336 224
FLAG 272 112 A[1:0]
FLAG 272 176 B[1:0]
FLAG 480 0 0
FLAG 96 112 I[1:0]
IOPIN 96 112 In
FLAG 96 176 I[3:2]
IOPIN 96 176 In
FLAG 528 112 0
FLAG 272 64 A[3:2]
FLAG 400 112 A[3:0]
FLAG 272 224 B[3:2]
FLAG 400 176 B[3:0]
FLAG 528 144 Q[3:0]
IOPIN 528 144 Out
BUSTAP 336 112 320 112
BUSTAP 336 64 320 64
BUSTAP 336 224 320 224
BUSTAP 336 176 320 176
SYMBOL 1counter_2bit 144 112 R0
SYMATTR InstName X1
SYMBOL 1counter_2bit 144 176 R0
SYMATTR InstName X2
SYMBOL voltage 480 96 R180
WINDOW 0 24 96 Left 2
WINDOW 3 24 16 Left 2
SYMATTR InstName V1
SYMATTR Value 0
SYMBOL adder-4bit 496 144 R0
SYMATTR InstName X3
SYMBOL val-2bit 208 64 R0
WINDOW 39 0 20 Bottom 0
SYMATTR SpiceLine v=0
SYMATTR InstName X4
SYMBOL val-2bit 208 224 R0
WINDOW 39 0 20 Bottom 0
SYMATTR SpiceLine v=0
SYMATTR InstName X5
