Version 4
SHEET 1 880 680
FLAG 432 176 Q
IOPIN 432 176 Out
FLAG 144 96 I[7:0]
IOPIN 144 96 In
FLAG 144 144 I[15:8]
IOPIN 144 144 In
FLAG 144 192 I[23:16]
IOPIN 144 192 In
FLAG 144 240 I[31:24]
IOPIN 144 240 In
FLAG 208 96 raw0
FLAG 208 144 raw1
FLAG 208 192 raw2
FLAG 208 240 raw3
FLAG 352 176 0
SYMBOL 1counter_8bit-fast 176 96 R0
SYMATTR InstName X1
SYMBOL 1counter_8bit-fast 176 144 R0
SYMATTR InstName X2
SYMBOL 1counter_8bit-fast 176 192 R0
SYMATTR InstName X3
SYMBOL 1counter_8bit-fast 176 240 R0
SYMATTR InstName X4
SYMBOL bi 352 176 R270
WINDOW 0 32 40 VTop 2
WINDOW 3 -32 40 VBottom 1
WINDOW 123 -60 40 VBottom 2
SYMATTR InstName B1
SYMATTR Value I=V(raw0)+V(raw1)+V(raw2)+V(raw3)
SYMATTR Value2 Rpar=1
