Version 4
SHEET 1 880 680
FLAG 432 176 Q
IOPIN 432 176 Out
FLAG 160 144 I[31:0]
IOPIN 160 144 In
FLAG 160 192 I[63:32]
IOPIN 160 192 In
FLAG 224 144 raw0
FLAG 224 192 raw1
FLAG 352 176 0
SYMBOL bi 352 176 R270
WINDOW 0 32 40 VTop 2
WINDOW 3 -32 40 VBottom 1
WINDOW 123 -60 40 VBottom 2
SYMATTR InstName B1
SYMATTR Value I=V(raw0)+V(raw1)
SYMATTR Value2 Rpar=1
SYMBOL 1counter_32bit-fast 192 144 R0
SYMATTR InstName X1
SYMBOL 1counter_32bit-fast 192 192 R0
SYMATTR InstName X2
