Version 4
SHEET 1 880 680
WIRE 144 144 80 144
WIRE 144 160 112 160
WIRE 336 160 272 160
WIRE 400 160 336 160
WIRE 112 176 112 160
WIRE 112 176 80 176
WIRE 144 176 128 176
WIRE 128 192 128 176
WIRE 144 192 128 192
WIRE 128 208 128 192
WIRE 144 208 128 208
WIRE 128 224 128 208
WIRE 144 224 128 224
WIRE 160 224 160 208
WIRE 160 224 144 224
WIRE 160 272 128 272
WIRE 240 272 240 176
WIRE 240 272 224 272
WIRE 160 288 144 288
WIRE 144 304 144 288
WIRE 160 304 144 304
WIRE 128 320 128 272
WIRE 128 320 96 320
WIRE 144 320 144 304
WIRE 160 320 144 320
WIRE 144 336 144 320
WIRE 160 336 144 336
WIRE 176 336 176 320
WIRE 176 336 160 336
FLAG 80 176 in
IOPIN 80 176 In
FLAG 336 160 raw[15:0]
FLAG 544 160 out
IOPIN 544 160 Out
FLAG 160 336 0
FLAG 224 304 0
FLAG 96 272 0
FLAG 96 256 en
IOPIN 96 256 In
FLAG 80 144 run
IOPIN 80 144 In
FLAG 208 192 0
FLAG 144 224 0
FLAG 96 320 clr
IOPIN 96 320 In
SYMBOL up_16bitcounter 240 160 R0
SYMATTR InstName X1
SYMBOL Digital\\or 192 224 R0
WINDOW 0 5 28 Left 2
SYMATTR InstName A1
SYMBOL dac-16bit-fast 464 160 R0
SYMATTR InstName X2
SYMBOL Digital\\inv 96 192 R0
WINDOW 0 -3 33 Left 2
SYMATTR InstName A2
SYMBOL Digital\\and 176 112 R0
WINDOW 0 -22 17 Left 2
SYMATTR InstName A4
