Version 4
SHEET 1 1216 680
WIRE 384 144 336 144
WIRE 256 160 240 160
WIRE 640 160 576 160
WIRE 704 160 640 160
WIRE 256 176 256 160
WIRE 288 176 256 176
WIRE 384 176 384 144
WIRE 400 176 384 176
WIRE 288 192 240 192
WIRE 400 192 352 192
WIRE 544 192 544 176
WIRE 544 192 464 192
WIRE 288 208 256 208
WIRE 400 208 384 208
WIRE 256 224 256 208
WIRE 256 224 240 224
WIRE 288 224 272 224
WIRE 384 224 384 208
WIRE 400 224 384 224
WIRE 272 240 272 224
WIRE 288 240 272 240
WIRE 384 240 384 224
WIRE 400 240 384 240
WIRE 272 256 272 240
WIRE 288 256 272 256
WIRE 304 256 304 240
WIRE 304 256 288 256
WIRE 384 256 384 240
WIRE 400 256 384 256
WIRE 416 256 416 240
WIRE 416 256 400 256
FLAG 336 144 clr
IOPIN 336 144 In
FLAG 240 224 Q[2]
IOPIN 240 224 Out
FLAG 288 256 0
FLAG 352 224 0
FLAG 464 224 0
FLAG 400 256 0
FLAG 912 160 Q[7:0]
IOPIN 912 160 Out
FLAG 512 160 clk
IOPIN 512 160 In
FLAG 240 160 Q[6]
IOPIN 240 160 Out
FLAG 240 192 Q[5]
IOPIN 240 192 Out
FLAG 912 192 0
FLAG 704 224 0
FLAG 640 208 0
FLAG 640 192 clk
IOPIN 640 192 In
FLAG 640 160 unbuf[7:0]
SYMBOL Digital\\or 432 144 R0
SYMATTR InstName A2
SYMBOL Digital\\and 320 144 R0
SYMATTR InstName A6
SYMBOL up_8bitcounter 544 160 R0
SYMATTR InstName X1
SYMBOL dbuf_8bit 800 192 R0
SYMATTR InstName X2
SYMBOL Digital\\buf1 640 128 R0
WINDOW 0 18 85 Left 2
WINDOW 3 2 63 Left 0
SYMATTR InstName A1
SYMATTR Value td=2n
