Version 4
SHEET 1 880 680
WIRE -128 -48 -128 -64
WIRE -128 -48 -160 -48
WIRE -128 16 -128 0
WIRE -128 16 -160 16
FLAG -96 -80 B[15:8]
IOPIN -96 -80 Out
FLAG -96 -16 B[7:0]
IOPIN -96 -16 Out
FLAG -160 -48 clr
IOPIN -160 -48 In
FLAG -160 16 clr
IOPIN -160 16 In
FLAG -160 -80 clk
IOPIN -160 -80 In
FLAG -160 -16 clk
IOPIN -160 -16 In
SYMBOL up_8bitcounter -128 -80 R0
WINDOW 39 20 29 Bottom 0
SYMATTR SpiceLine k=256
SYMATTR InstName X1
SYMBOL up_8bitcounter -128 -16 R0
SYMATTR InstName X2
