Version 4
SHEET 1 880 680
WIRE -80 32 -96 32
WIRE -80 48 -80 32
WIRE -80 64 -96 64
WIRE -80 80 -96 80
WIRE -96 96 -96 80
WIRE -80 96 -96 96
WIRE 16 96 -16 96
WIRE 96 96 80 96
WIRE 160 96 96 96
WIRE -96 112 -96 96
WIRE -80 112 -96 112
WIRE 16 112 0 112
WIRE -96 128 -96 112
WIRE -80 128 -96 128
WIRE -64 128 -64 112
WIRE -64 128 -80 128
WIRE 0 128 0 112
WIRE 16 128 0 128
WIRE 0 144 0 128
WIRE 16 144 0 144
WIRE 0 160 0 144
WIRE 16 160 0 160
WIRE 32 160 32 144
WIRE 32 160 16 160
WIRE 96 256 96 96
WIRE 160 256 96 256
FLAG 160 336 0
FLAG 272 304 Q[0]
IOPIN 272 304 Out
FLAG 160 176 0
FLAG 272 144 Q[1]
IOPIN 272 144 Out
FLAG 16 80 clk
IOPIN 16 80 In
FLAG 160 304 clr
IOPIN 160 304 In
FLAG 160 144 clr
IOPIN 160 144 In
FLAG 80 128 0
FLAG 16 160 0
FLAG 256 256 0
FLAG 256 96 0
FLAG -96 32 Q[1]
IOPIN -96 32 Out
FLAG -96 64 Q[0]
IOPIN -96 64 Out
FLAG -16 64 0
FLAG -80 128 0
SYMBOL Digital\\srflop 208 208 R0
WINDOW 3 -15 134 Left 2
SYMATTR Value cycles=2
SYMATTR InstName A1
SYMATTR SpiceModel Counter
SYMBOL Digital\\srflop 208 48 R0
WINDOW 3 -15 134 Left 2
SYMATTR Value cycles=4
SYMATTR InstName A2
SYMATTR SpiceModel Counter
SYMBOL Digital\\and 48 48 R0
SYMATTR InstName A3
SYMBOL Digital\\and -48 16 R0
SYMATTR InstName A4
