Version 4
SHEET 1 880 680
FLAG 160 256 clk
IOPIN 160 256 In
FLAG 160 336 0
FLAG 272 304 Q[0]
IOPIN 272 304 Out
FLAG 160 176 0
FLAG 272 144 Q[1]
IOPIN 272 144 Out
FLAG 160 96 clk
IOPIN 160 96 In
FLAG 256 256 0
FLAG 256 96 0
FLAG 160 304 clr
IOPIN 160 304 In
FLAG 160 144 clr
IOPIN 160 144 In
SYMBOL Digital\\srflop 208 208 R0
WINDOW 3 -15 134 Left 2
SYMATTR Value cycles=2
SYMATTR InstName A1
SYMATTR SpiceModel Counter
SYMBOL Digital\\srflop 208 48 R0
WINDOW 3 -15 134 Left 2
SYMATTR Value cycles=4
SYMATTR InstName A2
SYMATTR SpiceModel Counter
