Version 4
SHEET 1 1200 680
FLAG 672 224 clk
IOPIN 672 224 In
FLAG 672 304 0
FLAG 784 272 Q[0]
IOPIN 784 272 Out
FLAG 672 144 0
FLAG 784 112 Q[1]
IOPIN 784 112 Out
FLAG 432 304 0
FLAG 544 272 Q[2]
IOPIN 544 272 Out
FLAG 416 144 0
FLAG 528 112 Q[3]
IOPIN 528 112 Out
FLAG 672 64 clk
IOPIN 672 64 In
FLAG 432 224 clk
IOPIN 432 224 In
FLAG 416 64 clk
IOPIN 416 64 In
FLAG 768 224 0
FLAG 768 64 0
FLAG 528 224 0
FLAG 512 64 0
FLAG 672 272 clr
IOPIN 672 272 In
FLAG 672 112 clr
IOPIN 672 112 In
FLAG 432 272 clr
IOPIN 432 272 In
FLAG 416 112 clr
IOPIN 416 112 In
SYMBOL Digital\\srflop 720 176 R0
WINDOW 3 -15 134 Left 2
SYMATTR Value cycles=2
SYMATTR InstName A1
SYMATTR SpiceModel Counter
SYMBOL Digital\\srflop 720 16 R0
WINDOW 3 -15 134 Left 2
SYMATTR Value cycles=4
SYMATTR InstName A2
SYMATTR SpiceModel Counter
SYMBOL Digital\\srflop 480 176 R0
WINDOW 3 -15 134 Left 2
SYMATTR Value cycles=8
SYMATTR InstName A3
SYMATTR SpiceModel Counter
SYMBOL Digital\\srflop 464 16 R0
WINDOW 3 -15 134 Left 2
SYMATTR Value cycles=16
SYMATTR InstName A4
SYMATTR SpiceModel Counter
