Version 4
SHEET 1 880 680
WIRE -160 -160 -208 -160
WIRE -160 -144 -160 -160
WIRE -144 -144 -160 -144
WIRE -144 -128 -208 -128
WIRE -144 -112 -192 -112
WIRE -192 -96 -192 -112
WIRE -192 -96 -208 -96
WIRE -144 -96 -176 -96
WIRE -32 -96 -80 -96
WIRE -144 -80 -160 -80
WIRE -32 -80 -48 -80
WIRE -176 -64 -176 -96
WIRE -176 -64 -208 -64
WIRE -48 -64 -48 -80
WIRE -32 -64 -48 -64
WIRE -48 -48 -48 -64
WIRE -32 -48 -48 -48
WIRE -160 -32 -160 -80
WIRE -160 -32 -208 -32
WIRE -48 -32 -48 -48
WIRE -32 -32 -48 -32
WIRE -16 -32 -16 -48
WIRE -16 -32 -32 -32
FLAG 208 304 0
FLAG 304 224 0
FLAG 320 272 B[0]
IOPIN 320 272 Out
FLAG 208 144 0
FLAG 304 64 0
FLAG 320 112 B[1]
IOPIN 320 112 Out
FLAG 208 -16 0
FLAG -32 -112 clk
IOPIN -32 -112 In
FLAG 304 -96 0
FLAG 320 -48 B[2]
IOPIN 320 -48 Out
FLAG -48 304 0
FLAG 48 224 0
FLAG 64 272 B[3]
IOPIN 64 272 Out
FLAG -48 144 0
FLAG 48 64 0
FLAG 64 112 B[4]
IOPIN 64 112 Out
FLAG -48 272 clr
IOPIN -48 272 In
FLAG 208 -48 clr
IOPIN 208 -48 In
FLAG 208 112 clr
IOPIN 208 112 In
FLAG 208 272 clr
IOPIN 208 272 In
FLAG -48 112 clr
IOPIN -48 112 In
FLAG -48 64 clk_buf
FLAG -48 224 clk_buf
FLAG 208 64 clk_buf
FLAG 208 -96 clk_buf
FLAG 208 224 clk_buf
FLAG -32 -32 0
FLAG 32 -64 0
FLAG 32 -96 clk_buf
FLAG -128 -80 0
FLAG -80 -128 0
FLAG -208 -96 B[2]
IOPIN -208 -96 Out
FLAG -208 -32 B[4]
IOPIN -208 -32 Out
FLAG -208 -64 B[3]
IOPIN -208 -64 Out
FLAG -208 -128 B[1]
IOPIN -208 -128 Out
FLAG -208 -160 B[0]
IOPIN -208 -160 Out
SYMBOL Digital\\srflop 256 176 R0
WINDOW 3 -25 142 Left 2
SYMATTR Value cycles=2*{k}
SYMATTR InstName A1
SYMATTR SpiceModel counter
SYMBOL Digital\\srflop 256 16 R0
WINDOW 3 -25 142 Left 2
SYMATTR Value cycles=4*{k}
SYMATTR InstName A2
SYMATTR SpiceModel counter
SYMBOL Digital\\srflop 256 -144 R0
WINDOW 3 -25 142 Left 2
SYMATTR Value cycles=8*{k}
SYMATTR InstName A3
SYMATTR SpiceModel counter
SYMBOL Digital\\srflop 0 176 R0
WINDOW 3 -25 142 Left 2
SYMATTR Value cycles=16*{k}
SYMATTR InstName A4
SYMATTR SpiceModel counter
SYMBOL Digital\\srflop 0 16 R0
WINDOW 3 -25 142 Left 2
SYMATTR Value cycles=32*{k}
SYMATTR InstName A5
SYMATTR SpiceModel counter
SYMBOL Digital\\and 0 -144 R0
SYMATTR InstName A6
SYMBOL Digital\\and -112 -176 R0
SYMATTR InstName A7
TEXT 48 -160 Left 2 !.param k=1
