Version 4
SHEET 1 880 680
FLAG 208 304 0
FLAG 208 224 clk
IOPIN 208 224 In
FLAG 304 224 0
FLAG 320 272 B[0]
IOPIN 320 272 Out
FLAG 208 144 0
FLAG 208 64 clk
IOPIN 208 64 In
FLAG 304 64 0
FLAG 320 112 B[1]
IOPIN 320 112 Out
FLAG 208 -16 0
FLAG 208 -96 clk
IOPIN 208 -96 In
FLAG 304 -96 0
FLAG 320 -48 B[2]
IOPIN 320 -48 Out
FLAG -48 304 0
FLAG -48 224 clk
IOPIN -48 224 In
FLAG 48 224 0
FLAG 64 272 B[3]
IOPIN 64 272 Out
FLAG -48 144 0
FLAG -48 64 clk
IOPIN -48 64 In
FLAG 48 64 0
FLAG 64 112 B[4]
IOPIN 64 112 Out
FLAG -48 -16 0
FLAG -48 -96 clk
IOPIN -48 -96 In
FLAG 48 -96 0
FLAG 64 -48 B[5]
IOPIN 64 -48 Out
FLAG -48 272 clr
IOPIN -48 272 In
FLAG 208 -48 clr
IOPIN 208 -48 In
FLAG 208 112 clr
IOPIN 208 112 In
FLAG 208 272 clr
IOPIN 208 272 In
FLAG -48 112 clr
IOPIN -48 112 In
FLAG -48 -48 clr
IOPIN -48 -48 In
SYMBOL Digital\\srflop 256 176 R0
WINDOW 3 -25 142 Left 2
SYMATTR Value cycles=2*{k}
SYMATTR InstName A1
SYMATTR SpiceModel counter
SYMBOL Digital\\srflop 256 16 R0
WINDOW 3 -25 142 Left 2
SYMATTR Value cycles=4*{k}
SYMATTR InstName A2
SYMATTR SpiceModel counter
SYMBOL Digital\\srflop 256 -144 R0
WINDOW 3 -25 142 Left 2
SYMATTR Value cycles=8*{k}
SYMATTR InstName A3
SYMATTR SpiceModel counter
SYMBOL Digital\\srflop 0 176 R0
WINDOW 3 -25 142 Left 2
SYMATTR Value cycles=16*{k}
SYMATTR InstName A4
SYMATTR SpiceModel counter
SYMBOL Digital\\srflop 0 16 R0
WINDOW 3 -25 142 Left 2
SYMATTR Value cycles=32*{k}
SYMATTR InstName A5
SYMATTR SpiceModel counter
SYMBOL Digital\\srflop 0 -144 R0
WINDOW 3 -25 142 Left 2
SYMATTR Value cycles=64*{k}
SYMATTR InstName A6
SYMATTR SpiceModel counter
TEXT 48 -160 Left 2 !.param k=1
