Version 4
SHEET 1 1216 680
WIRE 640 160 576 160
WIRE 704 160 640 160
WIRE 544 192 544 176
WIRE 544 192 464 192
WIRE 400 208 384 208
WIRE 384 224 384 208
WIRE 400 224 384 224
WIRE 384 240 384 224
WIRE 400 240 384 240
WIRE 384 256 384 240
WIRE 400 256 384 256
WIRE 416 256 416 240
WIRE 416 256 400 256
FLAG 400 176 clr
IOPIN 400 176 In
FLAG 400 192 Q[3]
FLAG 464 224 0
FLAG 400 256 0
FLAG 864 192 Q[3:0]
IOPIN 864 192 Out
FLAG 512 160 clk
IOPIN 512 160 In
FLAG 704 224 0
FLAG 640 208 0
FLAG 640 192 clk
IOPIN 640 192 In
FLAG 640 160 unbuf[3:0]
SYMBOL Digital\\or 432 144 R0
SYMATTR InstName A2
SYMBOL up_4bitcounter 544 160 R0
SYMATTR InstName X1
SYMBOL dbuf_4bit 784 192 R0
SYMATTR InstName X2
SYMBOL Digital\\buf1 640 128 R0
WINDOW 0 24 83 Left 0
WINDOW 3 3 64 Left 0
SYMATTR InstName A1
SYMATTR Value td=2n
