Version 4
SHEET 1 1944 1340
WIRE 464 -176 448 -176
WIRE 464 -160 464 -176
WIRE 480 -160 464 -160
WIRE 480 -144 448 -144
WIRE 560 -144 544 -144
WIRE 480 -128 464 -128
WIRE 464 -112 464 -128
WIRE 480 -112 464 -112
WIRE 464 -96 464 -112
WIRE 480 -96 464 -96
WIRE 464 -80 464 -96
WIRE 480 -80 464 -80
WIRE 512 -80 512 -96
WIRE 512 -80 480 -80
WIRE 480 -16 400 -16
WIRE 928 -16 848 -16
WIRE 480 112 400 112
WIRE 928 112 848 112
WIRE 480 240 400 240
WIRE 928 240 848 240
WIRE 480 368 400 368
WIRE 928 368 848 368
WIRE 480 496 400 496
WIRE 928 496 848 496
WIRE 480 624 400 624
WIRE 928 624 848 624
WIRE 480 752 400 752
WIRE 480 880 400 880
WIRE 976 912 976 896
WIRE 976 912 960 912
FLAG 928 272 clk
IOPIN 928 272 In
FLAG 448 -144 B[14:0]
FLAG 560 -112 0
FLAG 480 -80 0
FLAG 448 -176 dec
IOPIN 448 -176 In
FLAG 560 -144 Bd[14:0]
FLAG 928 752 Bd[0]
FLAG 784 640 Bd[1:0]
FLAG 848 656 0
FLAG 784 512 Bd[2:0]
FLAG 848 528 0
FLAG 784 384 Bd[3:0]
FLAG 848 400 0
FLAG 784 256 Bd[4:0]
FLAG 848 272 0
FLAG 960 912 clr
IOPIN 960 912 In
FLAG 928 816 clr
IOPIN 928 816 In
FLAG 928 688 clr
IOPIN 928 688 In
FLAG 928 560 clr
IOPIN 928 560 In
FLAG 928 432 clr
IOPIN 928 432 In
FLAG 928 304 clr
IOPIN 928 304 In
FLAG 928 400 clk
IOPIN 928 400 In
FLAG 928 528 clk
IOPIN 928 528 In
FLAG 960 880 clk
IOPIN 960 880 In
FLAG 928 784 clk
IOPIN 928 784 In
FLAG 928 656 clk
IOPIN 928 656 In
FLAG 928 16 clk
IOPIN 928 16 In
FLAG 784 128 Bd[5:0]
FLAG 848 144 0
FLAG 784 0 Bd[6:0]
FLAG 848 16 0
FLAG 928 176 clr
IOPIN 928 176 In
FLAG 928 48 clr
IOPIN 928 48 In
FLAG 928 144 clk
IOPIN 928 144 In
FLAG 480 784 clk
IOPIN 480 784 In
FLAG 336 896 Bd[7:0]
FLAG 400 912 0
FLAG 336 768 Bd[8:0]
FLAG 400 784 0
FLAG 480 944 clr
IOPIN 480 944 In
FLAG 480 816 clr
IOPIN 480 816 In
FLAG 480 912 clk
IOPIN 480 912 In
FLAG 480 144 clk
IOPIN 480 144 In
FLAG 336 640 Bd[9:0]
FLAG 400 656 0
FLAG 336 128 Bd[13:0]
FLAG 400 144 0
FLAG 480 688 clr
IOPIN 480 688 In
FLAG 480 176 clr
IOPIN 480 176 In
FLAG 480 656 clk
IOPIN 480 656 In
FLAG 480 400 clk
IOPIN 480 400 In
FLAG 336 512 Bd[10:0]
FLAG 400 528 0
FLAG 336 384 Bd[11:0]
FLAG 400 400 0
FLAG 480 560 clr
IOPIN 480 560 In
FLAG 480 432 clr
IOPIN 480 432 In
FLAG 480 528 clk
IOPIN 480 528 In
FLAG 480 16 clk
IOPIN 480 16 In
FLAG 336 256 Bd[12:0]
FLAG 400 272 0
FLAG 336 0 Bd[14:0]
FLAG 400 16 0
FLAG 480 304 clr
IOPIN 480 304 In
FLAG 1008 -128 B[15:0]
IOPIN 1008 -128 Out
FLAG 480 48 clr
IOPIN 480 48 In
FLAG 480 272 clk
IOPIN 480 272 In
FLAG 560 32 0
FLAG 560 160 0
FLAG 560 288 0
FLAG 560 416 0
FLAG 560 544 0
FLAG 560 672 0
FLAG 560 800 0
FLAG 560 928 0
FLAG 1008 800 0
FLAG 1008 672 0
FLAG 1008 544 0
FLAG 1008 416 0
FLAG 1008 288 0
FLAG 1008 160 0
FLAG 1008 32 0
FLAG 560 0 unbuf[15]
FLAG 560 128 unbuf[14]
FLAG 560 256 unbuf[13]
FLAG 560 384 unbuf[12]
FLAG 560 512 unbuf[11]
FLAG 560 640 unbuf[10]
FLAG 560 768 unbuf[9]
FLAG 560 896 unbuf[8]
FLAG 1008 880 unbuf[0]
FLAG 1008 768 unbuf[1]
FLAG 1008 640 unbuf[2]
FLAG 1008 512 unbuf[3]
FLAG 1008 384 unbuf[4]
FLAG 1008 256 unbuf[5]
FLAG 1008 128 unbuf[6]
FLAG 1008 0 unbuf[7]
FLAG 848 -96 0
FLAG 784 -112 0
FLAG 848 -160 unbuf[15:0]
FLAG 784 -128 clk
IOPIN 784 -128 In
SYMBOL Digital\\xor 528 -192 R0
SYMATTR InstName A[14:0]
SYMBOL 2bit_and 800 640 R0
SYMATTR InstName X2
SYMBOL 3bit_and 800 512 R0
SYMATTR InstName X3
SYMBOL 4bit_and 800 384 R0
SYMATTR InstName X4
SYMBOL 5bit_and 800 256 R0
SYMATTR InstName X5
SYMBOL tflipflop 960 784 R0
SYMATTR InstName X6
SYMBOL tflipflop 960 656 R0
SYMATTR InstName X7
SYMBOL tflipflop 960 528 R0
SYMATTR InstName X8
SYMBOL tflipflop 960 400 R0
SYMATTR InstName X9
SYMBOL tflipflop 960 272 R0
SYMATTR InstName X10
SYMBOL tflipflop 960 144 R0
SYMATTR InstName X11
SYMBOL tflipflop 960 16 R0
SYMATTR InstName X12
SYMBOL 6bit_and 800 128 R0
SYMATTR InstName X13
SYMBOL 7bit_and 800 0 R0
SYMATTR InstName X14
SYMBOL tflipflop 512 912 R0
SYMATTR InstName X17
SYMBOL tflipflop 512 784 R0
SYMATTR InstName X18
SYMBOL tflipflop 512 656 R0
SYMATTR InstName X19
SYMBOL tflipflop 512 144 R0
SYMATTR InstName X20
SYMBOL tflipflop 512 528 R0
SYMATTR InstName X25
SYMBOL tflipflop 512 400 R0
SYMATTR InstName X26
SYMBOL tflipflop 512 272 R0
SYMATTR InstName X27
SYMBOL tflipflop 512 16 R0
SYMATTR InstName X28
SYMBOL 10bit_and 352 640 R0
SYMATTR InstName X15
SYMBOL 11bit_and 352 512 R0
SYMATTR InstName X16
SYMBOL 12bit_and 352 384 R0
SYMATTR InstName X21
SYMBOL 13bit_and 352 256 R0
SYMATTR InstName X22
SYMBOL 14bit_and 352 128 R0
SYMATTR InstName X23
SYMBOL 15bit_and 352 0 R0
SYMATTR InstName X24
SYMBOL 9bit_and 352 768 R0
SYMATTR InstName X29
SYMBOL 8bit_and 352 896 R0
SYMATTR InstName X30
SYMBOL clkdiv-dis 992 880 R0
SYMATTR InstName X31
SYMBOL dbuf_16bit 928 -128 R0
SYMATTR InstName X1
SYMBOL Digital\\buf1 784 -192 R0
WINDOW 0 20 81 Left 2
WINDOW 3 4 63 Left 0
SYMATTR InstName A1
SYMATTR Value td=2n
