Version 4
SHEET 1 1396 984
WIRE 176 432 160 432
WIRE 176 448 176 432
WIRE 192 448 176 448
WIRE 192 464 160 464
WIRE 272 464 256 464
WIRE 192 480 176 480
WIRE 176 496 176 480
WIRE 192 496 176 496
WIRE 176 512 176 496
WIRE 192 512 176 512
WIRE 176 528 176 512
WIRE 192 528 176 528
WIRE 224 528 224 512
WIRE 224 528 192 528
WIRE 192 576 112 576
WIRE 240 864 240 848
WIRE 240 864 224 864
FLAG 160 464 B[1:0]
FLAG 272 496 0
FLAG 192 528 0
FLAG 224 832 clk
IOPIN 224 832 In
FLAG 160 432 dec
IOPIN 160 432 In
FLAG 272 464 Bd[1:0]
FLAG 192 704 Bd[0]
FLAG 48 592 Bd[1:0]
FLAG 112 608 0
FLAG 224 864 clr
IOPIN 224 864 In
FLAG 192 736 clk
IOPIN 192 736 In
FLAG 192 768 clr
IOPIN 192 768 In
FLAG 608 672 B[2:0]
IOPIN 608 672 Out
FLAG 192 608 clk
IOPIN 192 608 In
FLAG 192 640 clr
IOPIN 192 640 In
FLAG 272 624 0
FLAG 272 752 0
FLAG 272 592 unbuf[2]
FLAG 272 720 unbuf[1]
FLAG 272 832 unbuf[0]
FLAG 448 704 0
FLAG 448 640 unbuf[2:0]
FLAG 384 688 0
FLAG 384 672 clk
IOPIN 384 672 In
SYMBOL Digital\\xor 240 416 R0
SYMATTR InstName A[1:0]
SYMBOL 2bit_and 64 592 R0
SYMATTR InstName X2
SYMBOL tflipflop 224 736 R0
SYMATTR InstName X4
SYMBOL tflipflop 224 608 R0
SYMATTR InstName X5
SYMBOL clkdiv-dis 256 832 R0
SYMATTR InstName X3
SYMBOL dbuf_3bit 528 672 R0
SYMATTR InstName X1
SYMBOL Digital\\buf1 384 608 R0
WINDOW 0 20 81 Left 2
WINDOW 3 1 63 Left 0
SYMATTR InstName A1
SYMATTR Value td=2n
