Version 4
SHEET 1 1396 984
WIRE 160 496 64 496
WIRE 0 512 -16 512
WIRE -16 528 -16 512
WIRE 0 528 -16 528
WIRE -16 544 -16 528
WIRE 0 544 -16 544
WIRE -16 560 -16 544
WIRE 0 560 -16 560
WIRE 32 560 32 544
WIRE 32 560 0 560
WIRE 208 640 208 624
WIRE 208 640 192 640
FLAG 240 608 unbuf[0]
FLAG 240 512 unbuf[1]
FLAG 0 496 B[0]
FLAG 0 560 0
FLAG 192 640 clr
IOPIN 192 640 In
FLAG 160 560 clr
IOPIN 160 560 In
FLAG 192 608 clk
IOPIN 192 608 In
FLAG 160 528 clk
IOPIN 160 528 In
FLAG 0 480 dec
IOPIN 0 480 In
FLAG 240 544 0
FLAG 80 528 0
FLAG 512 592 0
FLAG 608 544 B[1:0]
IOPIN 608 544 Out
FLAG 352 592 0
FLAG 352 576 clk
IOPIN 352 576 In
FLAG 416 544 unbuf[1:0]
SYMBOL Digital\\xor 48 448 R0
SYMATTR InstName A1
SYMBOL tflipflop 192 528 R0
SYMATTR InstName X2
SYMBOL clkdiv-dis 224 608 R0
SYMATTR InstName X1
SYMBOL dbuf_2bit 512 560 R0
SYMATTR InstName X3
SYMBOL Digital\\buf1 352 512 R0
WINDOW 0 23 83 Left 2
WINDOW 3 2 64 Left 0
SYMATTR InstName A2
SYMATTR Value td=2n
