Version 4
SHEET 1 1944 1292
WIRE 448 608 432 608
WIRE 448 624 448 608
WIRE 448 640 432 640
WIRE 448 656 368 656
WIRE 448 672 432 672
WIRE 576 672 512 672
WIRE 672 672 640 672
WIRE 432 688 432 672
WIRE 448 688 432 688
WIRE 576 688 544 688
WIRE 432 704 432 688
WIRE 448 704 432 704
WIRE 464 704 464 688
WIRE 464 704 448 704
WIRE 576 704 560 704
WIRE 560 720 560 704
WIRE 576 720 560 720
WIRE 448 736 432 736
WIRE 560 736 560 720
WIRE 576 736 560 736
WIRE 592 736 592 720
WIRE 592 736 576 736
WIRE 448 752 448 736
WIRE 448 768 432 768
WIRE 448 784 368 784
WIRE 448 800 432 800
WIRE 544 800 544 688
WIRE 544 800 512 800
WIRE 432 816 432 800
WIRE 448 816 432 816
WIRE 432 832 432 816
WIRE 448 832 432 832
WIRE 464 832 464 816
WIRE 464 832 448 832
FLAG 720 544 dec
IOPIN 720 544 In
FLAG 576 656 clk
IOPIN 576 656 In
FLAG 720 560 0
FLAG 784 544 _dec
FLAG 432 608 clmp_top
IOPIN 432 608 In
FLAG 512 640 0
FLAG 448 704 0
FLAG 640 704 0
FLAG 576 736 0
FLAG 432 736 clmp_bot
IOPIN 432 736 In
FLAG 512 768 0
FLAG 448 832 0
FLAG 432 768 dec
IOPIN 432 768 In
FLAG 432 640 _dec
FLAG 720 624 0
FLAG 720 608 B[7:0]
FLAG 784 608 _B[7:0]
FLAG 304 672 B[7:0]
FLAG 304 800 _B[7:0]
FLAG 368 816 0
FLAG 368 688 0
FLAG 720 688 clr
IOPIN 720 688 In
FLAG 688 688 dec
IOPIN 688 688 In
FLAG 736 672 B[7:0]
IOPIN 736 672 Out
SYMBOL Digital\\inv 720 480 R0
SYMATTR InstName A3
SYMBOL Digital\\and 480 592 R0
WINDOW 3 -19 63 Left 0
SYMATTR Value td=2n
SYMATTR InstName A7
SYMBOL Digital\\and 608 624 R0
SYMATTR InstName A11
SYMBOL Digital\\inv 720 544 R0
SYMATTR InstName A[19:12]
SYMBOL 8bit_and 320 672 R0
SYMATTR InstName X5
SYMBOL 8bit_and 320 800 R0
SYMATTR InstName X6
SYMBOL updown_8bit_counter 704 672 R0
SYMATTR InstName X1
SYMBOL Digital\\and 480 720 R0
WINDOW 3 -19 63 Left 0
SYMATTR Value td=2n
SYMATTR InstName A1
