Version 4
SHEET 1 1396 984
WIRE 160 288 144 288
WIRE 160 304 160 288
WIRE 176 304 160 304
WIRE 176 320 144 320
WIRE 256 320 240 320
WIRE 176 336 160 336
WIRE 160 352 160 336
WIRE 176 352 160 352
WIRE 160 368 160 352
WIRE 176 368 160 368
WIRE 160 384 160 368
WIRE 176 384 160 384
WIRE 208 384 208 368
WIRE 208 384 176 384
WIRE 192 448 112 448
WIRE 192 576 112 576
WIRE 240 864 240 848
WIRE 240 864 224 864
FLAG 608 656 B[3:0]
IOPIN 608 656 Out
FLAG 144 320 B[2:0]
IOPIN 144 320 Out
FLAG 256 352 0
FLAG 176 384 0
FLAG 224 832 clk
IOPIN 224 832 In
FLAG 192 480 clk
IOPIN 192 480 In
FLAG 144 288 dec
IOPIN 144 288 In
FLAG 256 320 Bd[2:0]
FLAG 192 704 Bd[0]
FLAG 48 592 Bd[1:0]
FLAG 112 608 0
FLAG 48 464 Bd[2:0]
FLAG 112 480 0
FLAG 192 512 clr
IOPIN 192 512 In
FLAG 224 864 clr
IOPIN 224 864 In
FLAG 192 736 clk
IOPIN 192 736 In
FLAG 192 768 clr
IOPIN 192 768 In
FLAG 192 608 clk
IOPIN 192 608 In
FLAG 192 640 clr
IOPIN 192 640 In
FLAG 272 752 0
FLAG 272 624 0
FLAG 272 496 0
FLAG 272 464 unbuf[3]
FLAG 272 592 unbuf[2]
FLAG 272 720 unbuf[1]
FLAG 272 832 unbuf[0]
FLAG 448 688 0
FLAG 448 624 unbuf[3:0]
FLAG 384 672 0
FLAG 384 656 clk
IOPIN 384 656 In
SYMBOL Digital\\xor 224 272 R0
SYMATTR InstName A[2:0]
SYMBOL 2bit_and 64 592 R0
SYMATTR InstName X2
SYMBOL 3bit_and 64 464 R0
SYMATTR InstName X3
SYMBOL tflipflop 224 736 R0
SYMATTR InstName X4
SYMBOL tflipflop 224 608 R0
SYMATTR InstName X5
SYMBOL tflipflop 224 480 R0
SYMATTR InstName X6
SYMBOL clkdiv-dis 256 832 R0
SYMATTR InstName X7
SYMBOL dbuf_4bit 528 656 R0
SYMATTR InstName X1
SYMBOL Digital\\buf1 384 592 R0
WINDOW 0 21 82 Left 2
WINDOW 3 2 64 Left 0
SYMATTR InstName A1
SYMATTR Value td=2n
