Version 4
SHEET 1 1944 1292
WIRE 624 496 608 496
WIRE 624 512 624 496
WIRE 640 512 624 512
WIRE 640 528 608 528
WIRE 720 528 704 528
WIRE 640 544 624 544
WIRE 624 560 624 544
WIRE 640 560 624 560
WIRE 624 576 624 560
WIRE 640 576 624 576
WIRE 624 592 624 576
WIRE 640 592 624 592
WIRE 672 592 672 576
WIRE 672 592 640 592
WIRE 640 656 560 656
WIRE 1072 656 992 656
WIRE 640 784 560 784
WIRE 1072 784 992 784
WIRE 640 912 560 912
WIRE 640 1040 560 1040
WIRE 1120 1072 1120 1056
WIRE 1120 1072 1104 1072
FLAG 640 944 clk
IOPIN 640 944 In
FLAG 608 528 B[6:0]
FLAG 720 560 0
FLAG 640 592 0
FLAG 608 496 dec
IOPIN 608 496 In
FLAG 720 528 Bd[6:0]
FLAG 1072 912 Bd[0]
FLAG 928 800 Bd[1:0]
FLAG 992 816 0
FLAG 928 672 Bd[2:0]
FLAG 992 688 0
FLAG 496 1056 Bd[3:0]
FLAG 560 1072 0
FLAG 496 928 Bd[4:0]
FLAG 560 944 0
FLAG 1104 1072 clr
IOPIN 1104 1072 In
FLAG 1072 976 clr
IOPIN 1072 976 In
FLAG 1072 848 clr
IOPIN 1072 848 In
FLAG 1072 720 clr
IOPIN 1072 720 In
FLAG 640 1104 clr
IOPIN 640 1104 In
FLAG 640 976 clr
IOPIN 640 976 In
FLAG 640 1072 clk
IOPIN 640 1072 In
FLAG 1072 688 clk
IOPIN 1072 688 In
FLAG 1104 1040 clk
IOPIN 1104 1040 In
FLAG 1072 944 clk
IOPIN 1072 944 In
FLAG 1072 816 clk
IOPIN 1072 816 In
FLAG 640 688 clk
IOPIN 640 688 In
FLAG 496 800 Bd[5:0]
FLAG 560 816 0
FLAG 496 672 Bd[6:0]
FLAG 560 688 0
FLAG 640 848 clr
IOPIN 640 848 In
FLAG 1152 512 B[7:0]
IOPIN 1152 512 Out
FLAG 640 720 clr
IOPIN 640 720 In
FLAG 640 816 clk
IOPIN 640 816 In
FLAG 720 704 0
FLAG 720 832 0
FLAG 720 960 0
FLAG 720 1088 0
FLAG 1152 960 0
FLAG 1152 832 0
FLAG 1152 704 0
FLAG 720 672 unbuf[7]
FLAG 720 800 unbuf[6]
FLAG 720 928 unbuf[5]
FLAG 720 1056 unbuf[4]
FLAG 1152 1040 unbuf[0]
FLAG 1152 928 unbuf[1]
FLAG 1152 800 unbuf[2]
FLAG 1152 672 unbuf[3]
FLAG 1152 544 0
FLAG 944 512 unbuf[7:0]
FLAG 880 560 0
FLAG 944 576 0
FLAG 880 544 clk
IOPIN 880 544 In
SYMBOL Digital\\xor 688 480 R0
SYMATTR InstName A[6:0]
SYMBOL 2bit_and 944 800 R0
SYMATTR InstName X2
SYMBOL 3bit_and 944 672 R0
SYMATTR InstName X3
SYMBOL 4bit_and 512 1056 R0
SYMATTR InstName X4
SYMBOL 5bit_and 512 928 R0
SYMATTR InstName X5
SYMBOL tflipflop 1104 944 R0
SYMATTR InstName X6
SYMBOL tflipflop 1104 816 R0
SYMATTR InstName X7
SYMBOL tflipflop 1104 688 R0
SYMATTR InstName X8
SYMBOL tflipflop 672 1072 R0
SYMATTR InstName X9
SYMBOL tflipflop 672 944 R0
SYMATTR InstName X10
SYMBOL tflipflop 672 816 R0
SYMATTR InstName X13
SYMBOL tflipflop 672 688 R0
SYMATTR InstName X14
SYMBOL 6bit_and 512 800 R0
SYMATTR InstName X11
SYMBOL 7bit_and 512 672 R0
SYMATTR InstName X12
SYMBOL clkdiv-dis 1136 1040 R0
SYMATTR InstName X15
SYMBOL dbuf_8bit 1040 544 R0
SYMATTR InstName X1
SYMBOL Digital\\buf1 880 480 R0
WINDOW 0 22 82 Left 2
WINDOW 3 1 63 Left 0
SYMATTR InstName A1
SYMATTR Value td=2n
