Version 4
SHEET 1 1396 984
WIRE 144 288 96 288
WIRE 240 288 144 288
WIRE 288 288 272 288
WIRE 96 336 96 288
WIRE 96 336 64 336
WIRE -48 368 -80 368
WIRE 0 368 -48 368
WIRE 144 368 64 368
WIRE 288 368 288 288
WIRE 288 368 144 368
WIRE 304 368 288 368
WIRE -80 384 -80 368
WIRE -80 384 -112 384
WIRE -400 416 -464 416
WIRE -336 416 -400 416
WIRE -240 416 -320 416
WIRE -176 416 -240 416
WIRE 464 416 336 416
WIRE -48 448 -112 448
WIRE 0 448 -48 448
WIRE 16 448 0 448
WIRE 64 448 32 448
WIRE 176 448 64 448
WIRE 0 480 0 448
WIRE 16 480 0 480
WIRE 64 480 32 480
WIRE 64 496 64 480
WIRE 80 496 64 496
WIRE -464 512 -464 416
WIRE -336 512 -464 512
WIRE -400 544 -464 544
WIRE -336 544 -400 544
WIRE -224 544 -272 544
WIRE -176 544 -224 544
WIRE 256 544 240 544
WIRE -400 576 -464 576
WIRE -336 576 -400 576
WIRE 240 576 240 544
WIRE 240 576 -16 576
WIRE 464 576 464 416
WIRE 464 576 240 576
WIRE 480 576 464 576
WIRE -400 608 -464 608
WIRE -336 608 -400 608
WIRE -304 688 -304 624
WIRE -400 768 -544 768
WIRE -336 768 -400 768
WIRE -304 768 -304 688
WIRE -304 768 -320 768
WIRE -304 848 -304 768
WIRE -400 880 -544 880
WIRE -304 880 -304 864
WIRE -304 880 -400 880
FLAG 480 576 O[3:0]
IOPIN 480 576 Out
FLAG 32 320 dec
IOPIN 32 320 In
FLAG -128 288 0
FLAG -176 384 0
FLAG -240 416 next[4:0]
FLAG 400 464 0
FLAG 400 448 clk
IOPIN 400 448 In
FLAG 64 448 B[3:0]
FLAG 144 368 step[4:0]
FLAG 144 288 signedstep[4:0]
FLAG 0 336 0
FLAG -48 368 A[4:0]
FLAG -176 608 clr
IOPIN -176 608 In
FLAG 336 480 clr
IOPIN 336 480 In
FLAG -400 416 next[3:0]
FLAG 160 496 0
FLAG -48 448 B[4:0]
FLAG 64 480 B[4]
FLAG -272 576 0
FLAG -224 544 sel[3:0]
FLAG -400 544 hlim[3:0]
FLAG -400 576 llim[3:0]
FLAG -400 608 err[3:0]
FLAG 400 544 O
FLAG -624 880 0
FLAG -624 768 0
FLAG -304 688 clmp[1:0]
FLAG -400 880 clmp[0]
FLAG -400 768 clmp[1]
FLAG -176 576 clk
IOPIN -176 576 In
BUSTAP -320 416 -336 416
BUSTAP 16 448 32 448
BUSTAP 16 480 32 480
BUSTAP -304 848 -304 864
BUSTAP -320 768 -336 768
SYMBOL dbuf_4bit -96 576 R0
SYMATTR InstName X1
SYMBOL voltage -128 384 R180
WINDOW 0 24 96 Left 2
WINDOW 3 24 16 Left 2
WINDOW 123 0 0 Left 0
WINDOW 39 0 0 Left 0
SYMATTR InstName V1
SYMATTR Value 0
SYMBOL dbuf_4bit 256 448 M0
SYMATTR InstName X3
SYMBOL Digital\\buf1 400 384 M0
WINDOW 0 26 47 Left 2
WINDOW 3 2 64 Left 0
SYMATTR InstName A1
SYMATTR Value td=10n
SYMBOL val-5bit 320 368 M0
WINDOW 39 0 20 Bottom 0
SYMATTR SpiceLine v={step}
SYMATTR InstName X4
SYMBOL adder-5bit -144 416 M0
SYMATTR InstName X2
SYMBOL negate-5bit-fast 256 288 M0
WINDOW 0 0 9 Top 0
SYMATTR InstName X5
SYMBOL mux-5bit-2to1 32 352 R180
SYMATTR InstName X6
SYMBOL voltage 64 496 M90
WINDOW 0 24 96 Left 2
WINDOW 3 24 16 Left 2
WINDOW 123 0 0 Left 0
WINDOW 39 0 0 Left 0
SYMATTR InstName V2
SYMATTR Value 0
SYMBOL mux-4bit-4to1 -304 560 R0
SYMATTR InstName X7
SYMBOL val-4bit -480 544 M180
WINDOW 0 -27 2 Bottom 0
WINDOW 39 0 20 Bottom 0
SYMATTR InstName X8
SYMATTR SpiceLine v={hlim}
SYMBOL val-4bit -480 576 M180
WINDOW 0 -27 2 Bottom 0
WINDOW 39 0 20 Bottom 0
SYMATTR InstName X9
SYMATTR SpiceLine v={llim}
SYMBOL val-4bit -480 608 M180
WINDOW 0 -27 2 Bottom 0
WINDOW 39 0 20 Bottom 0
SYMATTR InstName X10
SYMATTR SpiceLine v=10
SYMBOL dac-4bit-fast 320 544 R0
SYMATTR InstName X11
SYMBOL bi -624 880 R270
WINDOW 0 32 40 VTop 2
WINDOW 3 -32 40 VBottom 0
SYMATTR InstName B1
SYMATTR Value I=(!V(dec))&((V(O)+{step})>{hlim})
SYMATTR Value2 Rpar=1
SYMBOL bi -624 768 R270
WINDOW 0 32 40 VTop 2
WINDOW 3 -32 40 VBottom 0
SYMATTR InstName B2
SYMATTR Value I=V(dec)&((V(O)-{step})<{llim})
SYMATTR Value2 Rpar=1
TEXT 104 320 Left 2 !.param step=1
TEXT -368 648 Right 2 !.param hlim=15 llim=0
