Version 4
SHEET 1 1944 1368
WIRE 448 736 432 736
WIRE 448 752 448 736
WIRE 448 768 432 768
WIRE 448 784 368 784
WIRE 448 800 432 800
WIRE 576 800 512 800
WIRE 672 800 640 800
WIRE 432 816 432 800
WIRE 448 816 432 816
WIRE 576 816 544 816
WIRE 432 832 432 816
WIRE 448 832 432 832
WIRE 464 832 464 816
WIRE 464 832 448 832
WIRE 576 832 560 832
WIRE 560 848 560 832
WIRE 576 848 560 848
WIRE 448 864 432 864
WIRE 560 864 560 848
WIRE 576 864 560 864
WIRE 592 864 592 848
WIRE 592 864 576 864
WIRE 448 880 448 864
WIRE 448 896 432 896
WIRE 448 912 368 912
WIRE 448 928 432 928
WIRE 544 928 544 816
WIRE 544 928 512 928
WIRE 432 944 432 928
WIRE 448 944 432 944
WIRE 432 960 432 944
WIRE 448 960 432 960
WIRE 464 960 464 944
WIRE 464 960 448 960
FLAG 688 672 dec
IOPIN 688 672 In
FLAG 576 784 clk
IOPIN 576 784 In
FLAG 688 688 0
FLAG 752 672 _dec
FLAG 432 736 clmp_top
IOPIN 432 736 In
FLAG 512 768 0
FLAG 448 832 0
FLAG 640 832 0
FLAG 576 864 0
FLAG 432 864 clmp_bot
IOPIN 432 864 In
FLAG 512 896 0
FLAG 448 960 0
FLAG 432 896 dec
IOPIN 432 896 In
FLAG 432 768 _dec
FLAG 688 752 0
FLAG 688 736 B[4:0]
FLAG 752 736 _B[4:0]
FLAG 304 800 B[4:0]
FLAG 304 928 _B[4:0]
FLAG 368 944 0
FLAG 368 816 0
FLAG 720 816 clr
IOPIN 720 816 In
FLAG 688 816 dec
IOPIN 688 816 In
FLAG 736 800 B[4:0]
IOPIN 736 800 Out
SYMBOL Digital\\inv 688 608 R0
SYMATTR InstName A3
SYMBOL Digital\\and 480 720 R0
WINDOW 3 -22 63 Left 0
SYMATTR Value td=2n
SYMATTR InstName A7
SYMBOL Digital\\and 608 752 R0
SYMATTR InstName A11
SYMBOL Digital\\inv 688 672 R0
SYMATTR InstName A[16:12]
SYMBOL Digital\\and 480 848 R0
WINDOW 3 -22 63 Left 0
SYMATTR Value td=2n
SYMATTR InstName A1
SYMBOL updown_5bit_counter 704 800 R0
SYMATTR InstName X1
SYMBOL 5bit_and 320 800 R0
SYMATTR InstName X2
SYMBOL 5bit_and 320 928 R0
SYMATTR InstName X3
