Version 4
SHEET 1 1944 1368
WIRE 576 768 560 768
WIRE 576 784 576 768
WIRE 592 784 576 784
WIRE 592 800 560 800
WIRE 672 800 656 800
WIRE 592 816 576 816
WIRE 576 832 576 816
WIRE 592 832 576 832
WIRE 576 848 576 832
WIRE 592 848 576 848
WIRE 576 864 576 848
WIRE 592 864 576 864
WIRE 624 864 624 848
WIRE 624 864 592 864
WIRE 560 928 480 928
WIRE 992 928 912 928
WIRE 560 1056 480 1056
WIRE 560 1184 480 1184
WIRE 1040 1216 1040 1200
WIRE 1040 1216 1024 1216
FLAG 560 960 clk
IOPIN 560 960 In
FLAG 560 800 B[4:0]
FLAG 672 832 0
FLAG 592 864 0
FLAG 560 768 dec
IOPIN 560 768 In
FLAG 672 800 Bd[4:0]
FLAG 992 1056 Bd[0]
FLAG 848 944 Bd[1:0]
FLAG 912 960 0
FLAG 416 1200 Bd[2:0]
FLAG 480 1216 0
FLAG 416 1072 Bd[3:0]
FLAG 480 1088 0
FLAG 416 944 Bd[4:0]
FLAG 480 960 0
FLAG 1024 1216 clr
IOPIN 1024 1216 In
FLAG 992 1120 clr
IOPIN 992 1120 In
FLAG 992 992 clr
IOPIN 992 992 In
FLAG 560 1248 clr
IOPIN 560 1248 In
FLAG 560 1120 clr
IOPIN 560 1120 In
FLAG 1072 816 B[5:0]
IOPIN 1072 816 Out
FLAG 560 992 clr
IOPIN 560 992 In
FLAG 560 1088 clk
IOPIN 560 1088 In
FLAG 560 1216 clk
IOPIN 560 1216 In
FLAG 1024 1184 clk
IOPIN 1024 1184 In
FLAG 992 1088 clk
IOPIN 992 1088 In
FLAG 992 960 clk
IOPIN 992 960 In
FLAG 640 976 0
FLAG 640 1104 0
FLAG 640 1232 0
FLAG 1072 1104 0
FLAG 1072 976 0
FLAG 640 944 unbuf[5]
FLAG 640 1072 unbuf[4]
FLAG 640 1200 unbuf[3]
FLAG 1072 1184 unbuf[0]
FLAG 1072 1072 unbuf[1]
FLAG 1072 944 unbuf[2]
FLAG 912 848 0
FLAG 848 832 0
FLAG 912 784 unbuf[5:0]
FLAG 848 816 clk
IOPIN 848 816 In
SYMBOL Digital\\xor 640 752 R0
SYMATTR InstName A[4:0]
SYMBOL 2bit_and 864 944 R0
SYMATTR InstName X3
SYMBOL 3bit_and 432 1200 R0
SYMATTR InstName X4
SYMBOL 4bit_and 432 1072 R0
SYMATTR InstName X2
SYMBOL 5bit_and 432 944 R0
SYMATTR InstName X7
SYMBOL tflipflop 1024 1088 R0
SYMATTR InstName X8
SYMBOL tflipflop 1024 960 R0
SYMATTR InstName X9
SYMBOL tflipflop 592 1216 R0
SYMATTR InstName X10
SYMBOL tflipflop 592 1088 R0
SYMATTR InstName X11
SYMBOL tflipflop 592 960 R0
SYMATTR InstName X12
SYMBOL clkdiv-dis 1056 1184 R0
SYMATTR InstName X5
SYMBOL dbuf_6bit 992 816 R0
SYMATTR InstName X1
SYMBOL Digital\\buf1 848 752 R0
WINDOW 0 18 80 Left 2
WINDOW 3 2 64 Left 0
SYMATTR InstName A1
SYMATTR Value td=2n
