Version 4
SHEET 1 880 680
FLAG 112 112 b[0]
FLAG 112 144 b[1]
FLAG 112 176 b[2]
FLAG 112 208 b[3]
FLAG 112 240 b[4]
SYMBOL bit-extract 96 112 R0
WINDOW 0 9 4 Bottom 0
WINDOW 39 -2 -2 Right 0
SYMATTR InstName X1
SYMATTR SpiceLine x=10
SYMBOL bit-extract 96 144 R0
WINDOW 0 9 4 Bottom 0
WINDOW 39 -2 -2 Right 0
SYMATTR InstName X2
SYMATTR SpiceLine x=10 e=1
SYMBOL bit-extract 96 176 R0
WINDOW 0 9 4 Bottom 0
WINDOW 39 -2 -2 Right 0
SYMATTR InstName X3
SYMATTR SpiceLine x=10 e=2
SYMBOL bit-extract 96 208 R0
WINDOW 0 9 4 Bottom 0
WINDOW 39 -2 -2 Right 0
SYMATTR InstName X4
SYMATTR SpiceLine x=10 e=3
SYMBOL bit-extract 96 240 R0
WINDOW 0 9 4 Bottom 0
WINDOW 39 -2 -2 Right 0
SYMATTR InstName X5
SYMATTR SpiceLine x=10 e=4
TEXT 72 88 Left 2 !.tran 1
