Version 4
SHEET 1 880 680
WIRE 80 176 16 176
WIRE 144 176 80 176
WIRE 96 208 16 208
WIRE 144 208 96 208
WIRE 352 208 304 208
WIRE 400 208 352 208
WIRE 144 240 96 240
WIRE 16 272 16 208
WIRE 96 272 96 240
WIRE 80 416 16 416
WIRE 144 416 80 416
WIRE 96 448 16 448
WIRE 144 448 96 448
WIRE 352 448 304 448
WIRE 400 448 352 448
WIRE 144 480 96 480
WIRE 16 512 16 448
FLAG 352 208 O[7:0]
FLAG 80 176 pre[7:0]
FLAG 96 352 0
FLAG 96 240 clk
FLAG 96 208 set
FLAG 16 352 0
FLAG 544 208 O
FLAG 352 448 O2[7:0]
FLAG 80 416 pre2[7:0]
FLAG 96 480 clk
FLAG 96 448 set2
FLAG 544 448 O2
FLAG 16 592 0
SYMBOL ring-shift_reg-1bit-8len 224 208 R0
WINDOW 0 0 -64 Bottom 1
SYMATTR InstName X1
SYMBOL val-8bit 0 176 R0
WINDOW 39 0 20 Bottom 0
SYMATTR InstName X2
SYMATTR SpiceLine v=167
SYMBOL voltage 96 256 M0
WINDOW 3 24 96 Invisible 2
WINDOW 123 0 0 Left 0
WINDOW 39 0 0 Left 0
SYMATTR InstName V1
SYMATTR Value PULSE(0 1 10u 10n 10n 1u 2u)
SYMBOL voltage 16 256 M0
WINDOW 3 24 96 Invisible 2
WINDOW 123 0 0 Left 0
WINDOW 39 0 0 Left 0
SYMATTR InstName V2
SYMATTR Value PULSE(0 1 1u 10n 10n 1u 100u 2)
SYMBOL dac-8bit-fast 464 208 R0
SYMATTR InstName X3
SYMBOL ring-shift_reg-1bit-8len 224 448 R0
WINDOW 0 0 -64 Bottom 1
SYMATTR InstName X4
SYMBOL val-8bit 0 416 R0
WINDOW 39 0 20 Bottom 0
SYMATTR InstName X5
SYMATTR SpiceLine v=1
SYMBOL dac-8bit-fast 464 448 R0
SYMATTR InstName X6
SYMBOL voltage 16 496 M0
WINDOW 3 24 96 Invisible 2
WINDOW 123 0 0 Left 0
WINDOW 39 0 0 Left 0
SYMATTR InstName V3
SYMATTR Value PULSE(0 1 1u 10n 10n 1u 100u 1)
TEXT 160 312 Left 2 !.tran 256u
