Version 4
SHEET 1 880 680
WIRE 176 96 112 96
WIRE 240 96 176 96
WIRE 176 144 112 144
WIRE 240 144 176 144
WIRE 176 192 112 192
WIRE 240 192 176 192
WIRE 176 240 112 240
WIRE 240 240 176 240
WIRE 176 288 112 288
WIRE 240 288 176 288
WIRE 176 336 112 336
WIRE 240 336 176 336
WIRE 176 384 112 384
WIRE 240 384 176 384
FLAG 176 96 odef[1:0]
FLAG 176 144 o0[1:0]
FLAG 176 192 o1[1:0]
FLAG 176 240 o2[1:0]
FLAG 176 288 o3[1:0]
FLAG 176 336 o4[1:0]
FLAG 176 384 o5[1:0]
FLAG 384 96 odef
FLAG 384 144 o0
FLAG 384 192 o1
FLAG 384 240 o2
FLAG 384 288 o3
FLAG 384 336 o4
FLAG 384 384 o5
SYMBOL val-2bit 96 96 R0
SYMATTR InstName X1
SYMBOL val-2bit 96 144 R0
WINDOW 39 0 20 Bottom 0
SYMATTR InstName X2
SYMATTR SpiceLine v=0
SYMBOL val-2bit 96 192 R0
WINDOW 39 0 20 Bottom 0
SYMATTR InstName X3
SYMATTR SpiceLine v=1
SYMBOL val-2bit 96 240 R0
WINDOW 39 0 20 Bottom 0
SYMATTR InstName X4
SYMATTR SpiceLine v=2
SYMBOL val-2bit 96 288 R0
WINDOW 39 0 20 Bottom 0
SYMATTR InstName X5
SYMATTR SpiceLine v=3
SYMBOL val-2bit 96 336 R0
WINDOW 39 0 20 Bottom 0
SYMATTR InstName X6
SYMATTR SpiceLine v=4
SYMBOL val-2bit 96 384 R0
WINDOW 39 0 20 Bottom 0
SYMATTR InstName X7
SYMATTR SpiceLine v=5
SYMBOL dac-2bit-fast 304 96 R0
SYMATTR InstName X8
SYMBOL dac-2bit-fast 304 144 R0
SYMATTR InstName X9
SYMBOL dac-2bit-fast 304 192 R0
SYMATTR InstName X10
SYMBOL dac-2bit-fast 304 240 R0
SYMATTR InstName X11
SYMBOL dac-2bit-fast 304 288 R0
SYMATTR InstName X12
SYMBOL dac-2bit-fast 304 336 R0
SYMATTR InstName X13
SYMBOL dac-2bit-fast 304 384 R0
SYMATTR InstName X14
TEXT 78 414 Left 2 !.tran 1m
