Version 4
SHEET 1 880 680
WIRE -64 160 -112 160
WIRE 64 160 0 160
WIRE 112 160 64 160
WIRE -112 176 -112 160
WIRE 80 192 16 192
WIRE 112 192 80 192
WIRE 112 224 80 224
WIRE 16 256 16 192
WIRE 80 256 80 224
FLAG 304 160 Q0[1:0]
FLAG 64 160 in[1:0]
FLAG -32 176 0
FLAG -112 256 0
FLAG 80 336 0
FLAG 16 336 0
FLAG 80 224 clr
FLAG 80 192 clk
FLAG -112 160 ctr_clk
FLAG -64 80 0
FLAG -128 80 0
FLAG -128 0 in_ctr
FLAG -64 0 q0_ctr
FLAG 304 192 Q1[1:0]
FLAG 304 224 Q2[1:0]
FLAG 0 80 0
FLAG 0 0 q1_ctr
FLAG 64 80 0
FLAG 64 0 q2_ctr
SYMBOL up_2bitcounter -32 160 R0
SYMATTR InstName X2
SYMBOL voltage 16 240 M0
WINDOW 123 0 0 Left 0
WINDOW 39 0 0 Left 0
SYMATTR InstName V1
SYMATTR Value PULSE(0 1 0.5u 0 0 1u 2u)
SYMBOL voltage 80 240 R0
WINDOW 123 0 0 Left 0
WINDOW 39 0 0 Left 0
SYMATTR InstName V2
SYMATTR Value PULSE(0 1 10u 0 0 100n 1)
SYMBOL voltage -112 160 M0
WINDOW 123 0 0 Left 0
WINDOW 39 0 0 Left 0
SYMATTR InstName V3
SYMATTR Value PULSE(0 1 0 0 0 1u 2u)
SYMBOL bv -128 -16 M0
WINDOW 3 24 96 Invisible 2
SYMATTR Value V=V(in[0])+2*V(in[1])
SYMATTR InstName B1
SYMBOL bv -64 -16 R0
WINDOW 3 24 96 Invisible 2
SYMATTR Value V=V(Q0[0])+2*V(Q0[1])
SYMATTR InstName B2
SYMBOL bv 0 -16 R0
WINDOW 3 24 96 Invisible 2
SYMATTR Value V=V(Q1[0])+2*V(Q1[1])
SYMATTR InstName B3
SYMBOL bv 64 -16 R0
WINDOW 3 24 96 Invisible 2
SYMATTR Value V=V(Q2[0])+2*V(Q2[1])
SYMATTR InstName B4
SYMBOL shift_reg-2bit-3len-full 208 192 R0
SYMATTR InstName X3
TEXT -416 288 Left 2 !.tran 20u
