Version 4
SHEET 1 880 680
WIRE 80 176 16 176
WIRE 144 176 80 176
WIRE 96 208 16 208
WIRE 144 208 96 208
WIRE 352 208 304 208
WIRE 400 208 352 208
WIRE 144 240 96 240
WIRE 16 272 16 208
WIRE 96 272 96 240
FLAG 352 208 O[63:0]
FLAG 80 176 pre[63:0]
FLAG 96 352 0
FLAG 96 240 clk
FLAG 96 208 set
FLAG 16 352 0
FLAG 544 208 O
SYMBOL val-8bit 0 176 R0
WINDOW 39 0 20 Bottom 0
SYMATTR SpiceLine v=1
SYMATTR InstName X2
SYMBOL voltage 96 256 M0
WINDOW 3 24 96 Invisible 2
WINDOW 123 0 0 Left 0
WINDOW 39 0 0 Left 0
SYMATTR Value PULSE(0 1 10u 10n 10n 1u 2u)
SYMATTR InstName V1
SYMBOL voltage 16 256 M0
WINDOW 3 24 96 Invisible 2
WINDOW 123 0 0 Left 0
WINDOW 39 0 0 Left 0
SYMATTR Value PULSE(0 1 1u 10n 10n 1u 100u 1)
SYMATTR InstName V2
SYMBOL ring-shift_reg-1bit-64len 224 208 R0
SYMATTR InstName X1
SYMBOL dac-64bit-fast 464 208 R0
SYMATTR InstName X3
TEXT 160 312 Left 2 !.tran 400u
