Version 4
SHEET 1 1500 680
WIRE 176 96 112 96
WIRE 240 96 176 96
WIRE 176 144 112 144
WIRE 240 144 176 144
WIRE 528 144 464 144
WIRE 592 144 528 144
WIRE 880 144 816 144
WIRE 944 144 880 144
WIRE 1232 144 1168 144
WIRE 1296 144 1232 144
WIRE 176 192 112 192
WIRE 240 192 176 192
WIRE 528 192 464 192
WIRE 592 192 528 192
WIRE 880 192 816 192
WIRE 944 192 880 192
WIRE 1232 192 1168 192
WIRE 1296 192 1232 192
WIRE 176 240 112 240
WIRE 240 240 176 240
WIRE 528 240 464 240
WIRE 592 240 528 240
WIRE 880 240 816 240
WIRE 944 240 880 240
WIRE 1232 240 1168 240
WIRE 1296 240 1232 240
WIRE 176 288 112 288
WIRE 240 288 176 288
WIRE 528 288 464 288
WIRE 592 288 528 288
WIRE 880 288 816 288
WIRE 944 288 880 288
WIRE 1232 288 1168 288
WIRE 1296 288 1232 288
WIRE 176 336 112 336
WIRE 240 336 176 336
WIRE 528 336 464 336
WIRE 592 336 528 336
WIRE 880 336 816 336
WIRE 944 336 880 336
WIRE 1232 336 1168 336
WIRE 1296 336 1232 336
WIRE 176 384 112 384
WIRE 240 384 176 384
WIRE 528 384 464 384
WIRE 592 384 528 384
WIRE 880 384 816 384
WIRE 944 384 880 384
WIRE 1232 384 1168 384
WIRE 1296 384 1232 384
WIRE 176 432 112 432
WIRE 240 432 176 432
WIRE 528 432 464 432
WIRE 592 432 528 432
WIRE 880 432 816 432
WIRE 944 432 880 432
WIRE 1232 432 1168 432
WIRE 1296 432 1232 432
WIRE 176 480 112 480
WIRE 240 480 176 480
WIRE 528 480 464 480
WIRE 592 480 528 480
WIRE 880 480 816 480
WIRE 944 480 880 480
WIRE 1232 480 1168 480
WIRE 1296 480 1232 480
WIRE 176 528 112 528
WIRE 240 528 176 528
WIRE 176 576 112 576
WIRE 240 576 176 576
FLAG 176 96 odef[4:0]
FLAG 176 144 o0[4:0]
FLAG 384 96 odef
FLAG 384 144 o0
FLAG 176 192 o1[4:0]
FLAG 384 192 o1
FLAG 176 240 o2[4:0]
FLAG 384 240 o2
FLAG 176 288 o3[4:0]
FLAG 384 288 o3
FLAG 176 336 o4[4:0]
FLAG 384 336 o4
FLAG 176 384 o5[4:0]
FLAG 384 384 o5
FLAG 176 432 o6[4:0]
FLAG 384 432 o6
FLAG 176 480 o7[4:0]
FLAG 384 480 o7
FLAG 528 144 o8[4:0]
FLAG 736 144 o8
FLAG 528 192 o9[4:0]
FLAG 736 192 o9
FLAG 528 240 o10[4:0]
FLAG 736 240 o10
FLAG 528 288 o11[4:0]
FLAG 736 288 o11
FLAG 528 336 o12[4:0]
FLAG 736 336 o12
FLAG 528 384 o13[4:0]
FLAG 736 384 o13
FLAG 528 432 o14[4:0]
FLAG 736 432 o14
FLAG 528 480 o15[4:0]
FLAG 736 480 o15
FLAG 880 144 o16[4:0]
FLAG 1088 144 o16
FLAG 880 192 o17[4:0]
FLAG 1088 192 o17
FLAG 880 240 o18[4:0]
FLAG 1088 240 o18
FLAG 880 288 o19[4:0]
FLAG 1088 288 o19
FLAG 880 336 o20[4:0]
FLAG 1088 336 o20
FLAG 880 384 o21[4:0]
FLAG 1088 384 o21
FLAG 880 432 o22[4:0]
FLAG 1088 432 o22
FLAG 880 480 o23[4:0]
FLAG 1088 480 o23
FLAG 1232 144 o24[4:0]
FLAG 1440 144 o24
FLAG 1232 192 o25[4:0]
FLAG 1440 192 o25
FLAG 1232 240 o26[4:0]
FLAG 1440 240 o26
FLAG 1232 288 o27[4:0]
FLAG 1440 288 o27
FLAG 1232 336 o28[4:0]
FLAG 1440 336 o28
FLAG 1232 384 o29[4:0]
FLAG 1440 384 o29
FLAG 1232 432 o30[4:0]
FLAG 1440 432 o30
FLAG 1232 480 o31[4:0]
FLAG 1440 480 o31
FLAG 176 528 o32[4:0]
FLAG 384 528 o32
FLAG 176 576 o33[4:0]
FLAG 384 576 o33
SYMBOL dac-5bit-fast 304 96 R0
WINDOW 0 8 -16 Bottom 0
SYMATTR InstName X3
SYMBOL dac-5bit-fast 304 144 R0
WINDOW 0 8 -16 Bottom 0
SYMATTR InstName X4
SYMBOL val-5bit 96 96 R0
SYMATTR InstName X1
SYMBOL val-5bit 96 144 R0
WINDOW 39 0 20 Bottom 0
SYMATTR InstName X2
SYMATTR SpiceLine v=0
SYMBOL dac-5bit-fast 304 192 R0
WINDOW 0 8 -16 Bottom 0
SYMATTR InstName X5
SYMBOL val-5bit 96 192 R0
WINDOW 39 0 20 Bottom 0
SYMATTR InstName X6
SYMATTR SpiceLine v=1
SYMBOL dac-5bit-fast 304 240 R0
WINDOW 0 8 -16 Bottom 0
SYMATTR InstName X7
SYMBOL val-5bit 96 240 R0
WINDOW 39 0 20 Bottom 0
SYMATTR InstName X8
SYMATTR SpiceLine v=2
SYMBOL dac-5bit-fast 304 288 R0
WINDOW 0 8 -16 Bottom 0
SYMATTR InstName X9
SYMBOL val-5bit 96 288 R0
WINDOW 39 0 20 Bottom 0
SYMATTR InstName X10
SYMATTR SpiceLine v=3
SYMBOL dac-5bit-fast 304 336 R0
WINDOW 0 8 -16 Bottom 0
SYMATTR InstName X11
SYMBOL val-5bit 96 336 R0
WINDOW 39 0 20 Bottom 0
SYMATTR InstName X12
SYMATTR SpiceLine v=4
SYMBOL dac-5bit-fast 304 384 R0
WINDOW 0 8 -16 Bottom 0
SYMATTR InstName X13
SYMBOL val-5bit 96 384 R0
WINDOW 39 0 20 Bottom 0
SYMATTR InstName X14
SYMATTR SpiceLine v=5
SYMBOL dac-5bit-fast 304 432 R0
WINDOW 0 8 -16 Bottom 0
SYMATTR InstName X15
SYMBOL val-5bit 96 432 R0
WINDOW 39 0 20 Bottom 0
SYMATTR InstName X16
SYMATTR SpiceLine v=6
SYMBOL dac-5bit-fast 304 480 R0
WINDOW 0 8 -16 Bottom 0
SYMATTR InstName X17
SYMBOL val-5bit 96 480 R0
WINDOW 39 0 20 Bottom 0
SYMATTR InstName X18
SYMATTR SpiceLine v=7
SYMBOL dac-5bit-fast 656 144 R0
WINDOW 0 8 -16 Bottom 0
SYMATTR InstName X19
SYMBOL val-5bit 448 144 R0
WINDOW 39 0 20 Bottom 0
SYMATTR InstName X20
SYMATTR SpiceLine v=8
SYMBOL dac-5bit-fast 656 192 R0
WINDOW 0 8 -16 Bottom 0
SYMATTR InstName X21
SYMBOL val-5bit 448 192 R0
WINDOW 39 0 20 Bottom 0
SYMATTR InstName X22
SYMATTR SpiceLine v=9
SYMBOL dac-5bit-fast 656 240 R0
WINDOW 0 8 -16 Bottom 0
SYMATTR InstName X23
SYMBOL val-5bit 448 240 R0
WINDOW 39 0 20 Bottom 0
SYMATTR InstName X24
SYMATTR SpiceLine v=10
SYMBOL dac-5bit-fast 656 288 R0
WINDOW 0 8 -16 Bottom 0
SYMATTR InstName X25
SYMBOL val-5bit 448 288 R0
WINDOW 39 0 20 Bottom 0
SYMATTR InstName X26
SYMATTR SpiceLine v=11
SYMBOL dac-5bit-fast 656 336 R0
WINDOW 0 8 -16 Bottom 0
SYMATTR InstName X27
SYMBOL val-5bit 448 336 R0
WINDOW 39 0 20 Bottom 0
SYMATTR InstName X28
SYMATTR SpiceLine v=12
SYMBOL dac-5bit-fast 656 384 R0
WINDOW 0 8 -16 Bottom 0
SYMATTR InstName X29
SYMBOL val-5bit 448 384 R0
WINDOW 39 0 20 Bottom 0
SYMATTR InstName X30
SYMATTR SpiceLine v=13
SYMBOL dac-5bit-fast 656 432 R0
WINDOW 0 8 -16 Bottom 0
SYMATTR InstName X31
SYMBOL val-5bit 448 432 R0
WINDOW 39 0 20 Bottom 0
SYMATTR InstName X32
SYMATTR SpiceLine v=14
SYMBOL dac-5bit-fast 656 480 R0
WINDOW 0 8 -16 Bottom 0
SYMATTR InstName X33
SYMBOL val-5bit 448 480 R0
WINDOW 39 0 20 Bottom 0
SYMATTR InstName X34
SYMATTR SpiceLine v=15
SYMBOL dac-5bit-fast 1008 144 R0
WINDOW 0 8 -16 Bottom 0
SYMATTR InstName X35
SYMBOL val-5bit 800 144 R0
WINDOW 39 0 20 Bottom 0
SYMATTR InstName X36
SYMATTR SpiceLine v=16
SYMBOL dac-5bit-fast 1008 192 R0
WINDOW 0 8 -16 Bottom 0
SYMATTR InstName X37
SYMBOL val-5bit 800 192 R0
WINDOW 39 0 20 Bottom 0
SYMATTR InstName X38
SYMATTR SpiceLine v=17
SYMBOL dac-5bit-fast 1008 240 R0
WINDOW 0 8 -16 Bottom 0
SYMATTR InstName X39
SYMBOL val-5bit 800 240 R0
WINDOW 39 0 20 Bottom 0
SYMATTR InstName X40
SYMATTR SpiceLine v=18
SYMBOL dac-5bit-fast 1008 288 R0
WINDOW 0 8 -16 Bottom 0
SYMATTR InstName X41
SYMBOL val-5bit 800 288 R0
WINDOW 39 0 20 Bottom 0
SYMATTR InstName X42
SYMATTR SpiceLine v=19
SYMBOL dac-5bit-fast 1008 336 R0
WINDOW 0 8 -16 Bottom 0
SYMATTR InstName X43
SYMBOL val-5bit 800 336 R0
WINDOW 39 0 20 Bottom 0
SYMATTR InstName X44
SYMATTR SpiceLine v=20
SYMBOL dac-5bit-fast 1008 384 R0
WINDOW 0 8 -16 Bottom 0
SYMATTR InstName X45
SYMBOL val-5bit 800 384 R0
WINDOW 39 0 20 Bottom 0
SYMATTR InstName X46
SYMATTR SpiceLine v=21
SYMBOL dac-5bit-fast 1008 432 R0
WINDOW 0 8 -16 Bottom 0
SYMATTR InstName X47
SYMBOL val-5bit 800 432 R0
WINDOW 39 0 20 Bottom 0
SYMATTR InstName X48
SYMATTR SpiceLine v=22
SYMBOL dac-5bit-fast 1008 480 R0
WINDOW 0 8 -16 Bottom 0
SYMATTR InstName X49
SYMBOL val-5bit 800 480 R0
WINDOW 39 0 20 Bottom 0
SYMATTR InstName X50
SYMATTR SpiceLine v=23
SYMBOL dac-5bit-fast 1360 144 R0
WINDOW 0 8 -16 Bottom 0
SYMATTR InstName X51
SYMBOL val-5bit 1152 144 R0
WINDOW 39 0 20 Bottom 0
SYMATTR InstName X52
SYMATTR SpiceLine v=24
SYMBOL dac-5bit-fast 1360 192 R0
WINDOW 0 8 -16 Bottom 0
SYMATTR InstName X53
SYMBOL val-5bit 1152 192 R0
WINDOW 39 0 20 Bottom 0
SYMATTR InstName X54
SYMATTR SpiceLine v=25
SYMBOL dac-5bit-fast 1360 240 R0
WINDOW 0 8 -16 Bottom 0
SYMATTR InstName X55
SYMBOL val-5bit 1152 240 R0
WINDOW 39 0 20 Bottom 0
SYMATTR InstName X56
SYMATTR SpiceLine v=26
SYMBOL dac-5bit-fast 1360 288 R0
WINDOW 0 8 -16 Bottom 0
SYMATTR InstName X57
SYMBOL val-5bit 1152 288 R0
WINDOW 39 0 20 Bottom 0
SYMATTR InstName X58
SYMATTR SpiceLine v=27
SYMBOL dac-5bit-fast 1360 336 R0
WINDOW 0 8 -16 Bottom 0
SYMATTR InstName X59
SYMBOL val-5bit 1152 336 R0
WINDOW 39 0 20 Bottom 0
SYMATTR InstName X60
SYMATTR SpiceLine v=28
SYMBOL dac-5bit-fast 1360 384 R0
WINDOW 0 8 -16 Bottom 0
SYMATTR InstName X61
SYMBOL val-5bit 1152 384 R0
WINDOW 39 0 20 Bottom 0
SYMATTR InstName X62
SYMATTR SpiceLine v=29
SYMBOL dac-5bit-fast 1360 432 R0
WINDOW 0 8 -16 Bottom 0
SYMATTR InstName X63
SYMBOL val-5bit 1152 432 R0
WINDOW 39 0 20 Bottom 0
SYMATTR InstName X64
SYMATTR SpiceLine v=30
SYMBOL dac-5bit-fast 1360 480 R0
WINDOW 0 8 -16 Bottom 0
SYMATTR InstName X65
SYMBOL val-5bit 1152 480 R0
WINDOW 39 0 20 Bottom 0
SYMATTR InstName X66
SYMATTR SpiceLine v=31
SYMBOL dac-5bit-fast 304 528 R0
WINDOW 0 8 -16 Bottom 0
SYMATTR InstName X67
SYMBOL val-5bit 96 528 R0
WINDOW 39 0 20 Bottom 0
SYMATTR InstName X68
SYMATTR SpiceLine v=32
SYMBOL dac-5bit-fast 304 576 R0
WINDOW 0 8 -16 Bottom 0
SYMATTR InstName X69
SYMBOL val-5bit 96 576 R0
WINDOW 39 0 20 Bottom 0
SYMATTR InstName X70
SYMATTR SpiceLine v=33
TEXT 88 56 Left 2 !.tran 1m
