Version 4
SHEET 1 1396 984
WIRE 512 -64 368 -64
WIRE 624 -64 576 -64
WIRE 672 -64 624 -64
WIRE 368 -48 368 -64
WIRE 528 -32 528 -48
WIRE 528 -32 464 -32
WIRE 464 -16 464 -32
WIRE 560 0 560 -48
WIRE 560 16 560 0
WIRE 624 160 576 160
WIRE 672 160 624 160
FLAG 368 32 0
FLAG 368 -64 clk
FLAG 560 96 0
FLAG 560 0 clr
FLAG 464 64 0
FLAG 464 -32 dec
FLAG 624 -64 B[3:0]
FLAG 816 -64 B
FLAG 512 160 clk
FLAG 560 176 clr
FLAG 528 176 dec
FLAG 624 160 B2[3:0]
FLAG 816 160 B2
SYMBOL voltage 368 -64 M0
WINDOW 123 0 0 Left 0
WINDOW 39 0 0 Left 0
SYMATTR InstName V1
SYMATTR Value PULSE(0 1 2u 1n 1n 500n 1u)
SYMBOL voltage 560 0 M0
WINDOW 123 0 0 Left 0
WINDOW 39 0 0 Left 0
SYMATTR InstName V2
SYMATTR Value PULSE(1 0 1u 1n 1n 1)
SYMBOL voltage 464 -32 M0
WINDOW 123 0 0 Left 0
WINDOW 39 0 0 Left 0
SYMATTR InstName V3
SYMATTR Value PULSE(0 1 20.5u 1n 1n 1)
SYMBOL dac-4bit-fast 736 -64 R0
SYMATTR InstName X2
SYMBOL dac-4bit-fast 736 160 R0
SYMATTR InstName X4
SYMBOL updown_4bitcounter-step-clamp 544 -64 R0
SYMATTR InstName X1
SYMBOL updown_4bitcounter-step-clamp 544 160 R0
WINDOW 39 51 24 Bottom 0
SYMATTR InstName X3
SYMATTR SpiceLine step=3
TEXT 80 -8 Left 2 !.tran 40u
