Version 4
SHEET 1 1396 984
WIRE 528 -64 464 -64
WIRE 464 -48 464 -64
WIRE 560 -32 560 -48
WIRE 560 -16 560 -32
FLAG 464 32 0
FLAG 464 -64 clk
FLAG 560 64 0
FLAG 560 -32 clr
FLAG 592 -64 B[3:0]
SYMBOL voltage 464 -64 M0
WINDOW 123 0 0 Left 0
WINDOW 39 0 0 Left 0
SYMATTR InstName V1
SYMATTR Value PULSE(0 1 2u 1n 1n 500n 1u)
SYMBOL voltage 560 -32 M0
WINDOW 123 0 0 Left 0
WINDOW 39 0 0 Left 0
SYMATTR InstName V2
SYMATTR Value PULSE(1 0 1u 1n 1n 20u 25u)
SYMBOL up_4bitcounter 560 -64 R0
SYMATTR InstName X1
TEXT 640 16 Left 2 !.tran 40u
