Version 4
SHEET 1 880 680
WIRE 32 160 16 160
WIRE 144 160 96 160
WIRE 192 160 144 160
WIRE 352 160 288 160
WIRE 416 160 352 160
WIRE 16 176 16 160
FLAG 144 160 in[3:0]
FLAG 352 160 out[3:0]
FLAG 560 160 out
FLAG 64 176 0
FLAG 16 256 0
FLAG 16 160 clk
SYMBOL voltage 16 160 M0
WINDOW 3 24 96 Invisible 2
WINDOW 123 0 0 Left 0
WINDOW 39 0 0 Left 0
SYMATTR Value PULSE(0 1 1u 10n 10n 1u 2u)
SYMATTR InstName V1
SYMBOL 1counter_4bit 240 160 R0
SYMATTR InstName X1
SYMBOL dac-4bit-fast 480 160 R0
SYMATTR InstName X3
SYMBOL up_4bitcounter 64 160 R0
SYMATTR InstName X2
TEXT 136 232 Left 2 !.tran 32u
