Version 4
SHEET 1 880 680
WIRE 32 160 16 160
WIRE 144 160 96 160
WIRE 192 160 144 160
WIRE 16 176 16 160
FLAG 144 160 in[7:0]
FLAG 256 160 out
FLAG 64 176 0
FLAG 16 256 0
FLAG 16 160 clk
SYMBOL voltage 16 160 M0
WINDOW 3 24 96 Invisible 2
WINDOW 123 0 0 Left 0
WINDOW 39 0 0 Left 0
SYMATTR Value PULSE(0 1 1u 10n 10n 1u 2u)
SYMATTR InstName V1
SYMBOL up_8bitcounter 64 160 R0
SYMATTR InstName X2
SYMBOL 1counter_8bit-fast 224 160 R0
SYMATTR InstName X1
TEXT 80 216 Left 2 !.tran 512u
