Version 4
SHEET 1 1400 984
WIRE 480 176 416 176
WIRE 416 192 416 176
WIRE 512 208 512 192
WIRE 512 224 512 208
FLAG 416 272 0
FLAG 416 176 clk
FLAG 512 304 0
FLAG 512 208 clr
FLAG 544 176 B[15:0]
FLAG 320 240 0
FLAG 320 160 btot
SYMBOL voltage 416 176 M0
WINDOW 123 0 0 Left 0
WINDOW 39 0 0 Left 0
SYMATTR InstName V1
SYMATTR Value PULSE(0 1 2u 1n 1n 500n 1u)
SYMBOL voltage 512 208 M0
WINDOW 123 0 0 Left 0
WINDOW 39 0 0 Left 0
SYMATTR InstName V2
SYMATTR Value PULSE(1 0 1u 1n 1n 80m 90m)
SYMBOL bv 320 144 M0
WINDOW 3 24 96 Invisible 2
SYMATTR Value V=V(b[15])*32768+V(b[14])*16384+V(b[13])*8192+V(b[12])*4096+V(b[11])*2048+V(b[10])*1024+V(b[9])*512+V(b[8])*256+V(b[7])*128+V(b[6])*64+V(b[5])*32+V(b[4])*16+V(b[3])*8+V(b[2])*4+V(b[1])*2+V(b[0])
SYMATTR InstName B1
SYMBOL up_16bitcounter 512 176 R0
SYMATTR InstName X1
TEXT 560 288 Left 2 !.tran 150m startup
