Version 4
SHEET 1 880 680
WIRE 32 160 16 160
WIRE 144 160 96 160
WIRE 192 160 144 160
WIRE 352 160 288 160
WIRE 416 160 352 160
WIRE 16 176 16 160
FLAG 144 160 in[1:0]
FLAG 352 160 out[1:0]
FLAG 560 160 out
FLAG 64 176 0
FLAG 16 256 0
FLAG 16 160 clk
SYMBOL 1counter_2bit 240 160 R0
SYMATTR InstName X1
SYMBOL up_2bitcounter 64 160 R0
SYMATTR InstName X2
SYMBOL dac-2bit-fast 480 160 R0
SYMATTR InstName X3
SYMBOL voltage 16 160 M0
WINDOW 3 24 96 Invisible 2
WINDOW 123 0 0 Left 0
WINDOW 39 0 0 Left 0
SYMATTR InstName V1
SYMATTR Value PULSE(0 1 1u 10n 10n 1u 2u)
TEXT 136 232 Left 2 !.tran 8u
