Version 4
SHEET 1 1400 984
WIRE 560 176 416 176
WIRE 416 192 416 176
WIRE 576 208 576 192
WIRE 576 208 512 208
WIRE 512 224 512 208
WIRE 608 240 608 192
WIRE 608 256 608 240
FLAG 416 272 0
FLAG 416 176 clk
FLAG 608 336 0
FLAG 608 240 clr
FLAG 512 304 0
FLAG 512 208 dec
FLAG 656 176 B[5:0]
FLAG 448 112 0
FLAG 528 112 H
FLAG 656 160 H
FLAG 656 192 H
SYMBOL voltage 416 176 M0
WINDOW 123 0 0 Left 0
WINDOW 39 0 0 Left 0
SYMATTR InstName V1
SYMATTR Value PULSE(0 1 2u 1n 1n 500n 1u)
SYMBOL voltage 608 240 M0
WINDOW 123 0 0 Left 0
WINDOW 39 0 0 Left 0
SYMATTR InstName V2
SYMATTR Value PULSE(1 0 1u 1n 1n 300u)
SYMBOL voltage 512 208 M0
WINDOW 123 0 0 Left 0
WINDOW 39 0 0 Left 0
SYMATTR InstName V3
SYMATTR Value PULSE(0 1 120.1u 1n 1n 100u)
SYMBOL updown_6bit_counter-clamp 608 176 R0
SYMATTR InstName X1
SYMBOL voltage 544 112 R90
WINDOW 0 -32 56 VBottom 2
WINDOW 3 32 56 VTop 2
SYMATTR InstName V4
SYMATTR Value 1
TEXT 128 224 Left 2 !.tran 320u startup
