Version 4
SHEET 1 880 680
WIRE 192 288 192 272
WIRE 192 288 160 288
FLAG 160 160 A[3:0]
IOPIN 160 160 In
FLAG 160 192 B[3:0]
IOPIN 160 192 In
FLAG 224 192 Q[3:0]
IOPIN 224 192 Out
FLAG 224 224 _Q[3:0]
IOPIN 224 224 Out
FLAG 160 288 x[1:0]
IOPIN 160 288 In
FLAG 160 224 C[3:0]
IOPIN 160 224 In
FLAG 160 256 D[3:0]
IOPIN 160 256 In
SYMBOL mux-1bit-4to1 192 208 R0
SYMATTR InstName X[3:0]
