Version 4
SHEET 1 880 680
WIRE 240 0 208 0
WIRE 240 80 240 0
WIRE 256 80 240 80
WIRE 176 96 176 80
WIRE 176 96 96 96
WIRE 256 112 240 112
WIRE 240 160 240 112
WIRE 240 160 208 160
WIRE 96 256 96 96
WIRE 176 256 176 240
WIRE 176 256 96 256
FLAG 144 0 b
IOPIN 144 0 In
FLAG 96 256 x[1:0]
IOPIN 96 256 In
FLAG 144 -32 a
IOPIN 144 -32 In
FLAG 288 112 _Q
IOPIN 288 112 Out
FLAG 288 80 Q
IOPIN 288 80 Out
FLAG 144 32 c
IOPIN 144 32 In
FLAG 144 64 d
IOPIN 144 64 In
FLAG 144 160 f
IOPIN 144 160 In
FLAG 144 128 e
IOPIN 144 128 In
FLAG 144 192 g
IOPIN 144 192 In
FLAG 144 224 h
IOPIN 144 224 In
FLAG 272 128 x[2]
IOPIN 272 128 In
FLAG 208 192 0
FLAG 208 32 0
SYMBOL mux-1bit-4to1 176 16 R0
SYMATTR InstName X1
SYMBOL mux-1bit-4to1 176 176 R0
SYMATTR InstName X2
SYMBOL mux-1bit-2to1 272 96 R0
SYMATTR InstName X3
