Version 4
SHEET 1 880 680
FLAG 160 192 A[1:0]
IOPIN 160 192 In
FLAG 160 224 B[1:0]
IOPIN 160 224 In
FLAG 192 192 Q[1:0]
IOPIN 192 192 Out
FLAG 192 224 _Q[1:0]
IOPIN 192 224 Out
FLAG 176 240 c
IOPIN 176 240 In
SYMBOL mux-1bit-2to1 176 208 R0
SYMATTR InstName X[1:0]
