Version 4
SHEET 1 1016 680
WIRE 320 128 256 128
WIRE 384 128 320 128
WIRE 192 160 176 160
WIRE 384 160 352 160
WIRE 592 160 544 160
WIRE 656 160 592 160
WIRE 592 192 560 192
WIRE 832 192 816 192
WIRE 352 240 352 160
WIRE 560 240 560 192
WIRE 560 240 352 240
WIRE 176 272 176 160
WIRE 832 272 832 192
WIRE 832 272 176 272
FLAG 832 192 Q[4:0]
IOPIN 832 192 Out
FLAG 224 208 0
FLAG 592 160 s[4:0]
FLAG 352 160 clk
IOPIN 352 160 In
FLAG 656 224 0
FLAG 192 96 in[4:0]
IOPIN 192 96 In
FLAG 256 96 0
FLAG 208 80 L
FLAG 304 208 L
FLAG 592 208 0
FLAG 320 128 unbuf[4:0]
FLAG 384 192 0
SYMBOL adder-5bit 224 128 R0
SYMATTR InstName X1
SYMBOL voltage 320 208 M270
WINDOW 0 32 56 VTop 2
WINDOW 3 -32 56 VBottom 2
SYMATTR InstName V1
SYMATTR Value 0
SYMBOL dbuf_5bit 736 192 R0
SYMATTR InstName X2
SYMBOL Digital\\buf1 592 128 R0
WINDOW 0 18 83 Left 2
WINDOW 3 1 64 Left 0
SYMATTR InstName A1
SYMATTR Value td=2n
SYMBOL dbuf_5bit 464 160 R0
SYMATTR InstName X3
