Version 4
SHEET 1 880 680
FLAG 192 304 s[1:0]
IOPIN 192 304 Out
FLAG 192 144 s[3:2]
IOPIN 192 144 Out
FLAG 176 -64 co
IOPIN 176 -64 Out
FLAG 128 272 a[1:0]
IOPIN 128 272 In
FLAG 128 112 a[3:2]
IOPIN 128 112 In
FLAG 128 176 b[3:2]
IOPIN 128 176 In
FLAG 128 336 b[1:0]
IOPIN 128 336 In
FLAG 144 256 ci
IOPIN 144 256 In
FLAG 144 96 co_int
FLAG 192 272 co_int
FLAG 128 -80 co_int1
FLAG 192 112 co_int1
FLAG 112 -64 a[4]
IOPIN 112 -64 In
FLAG 112 0 b[4]
IOPIN 112 0 In
FLAG 176 -32 s[4]
IOPIN 176 -32 Out
SYMBOL adder-2bit 160 304 R0
SYMATTR InstName X1
SYMBOL adder-2bit 160 144 R0
SYMATTR InstName X2
SYMBOL adder 144 -32 R0
SYMATTR InstName X3
