Version 4
SHEET 1 880 680
FLAG 96 304 s[3:0]
IOPIN 96 304 Out
FLAG 96 144 s[7:4]
IOPIN 96 144 Out
FLAG 96 112 co
IOPIN 96 112 Out
FLAG 32 272 a[3:0]
IOPIN 32 272 In
FLAG 32 112 a[7:4]
IOPIN 32 112 In
FLAG 32 176 b[7:4]
IOPIN 32 176 In
FLAG 32 336 b[3:0]
IOPIN 32 336 In
FLAG 48 256 ci
IOPIN 48 256 In
FLAG 48 96 co_int
FLAG 96 272 co_int
SYMBOL adder-4bit 64 144 R0
SYMATTR InstName X1
SYMBOL adder-4bit 64 304 R0
SYMATTR InstName X2
