Version 4
SHEET 1 880 1112
WIRE 176 432 176 416
WIRE 176 432 64 432
WIRE 384 432 384 416
WIRE 384 432 176 432
WIRE 64 592 64 432
WIRE 176 592 176 576
WIRE 176 592 64 592
WIRE 384 592 384 576
WIRE 384 592 176 592
WIRE 64 752 64 592
WIRE 176 752 176 736
WIRE 176 752 64 752
WIRE 384 752 384 736
WIRE 384 752 176 752
WIRE 64 912 64 752
WIRE 176 912 176 896
WIRE 176 912 64 912
WIRE 384 912 384 896
WIRE 384 912 176 912
FLAG 16 656 0
FLAG 16 576 L
FLAG 352 720 L
FLAG 352 688 L
FLAG 352 816 L
FLAG 352 848 L
FLAG 352 880 L
FLAG 352 560 L
FLAG 208 336 Q[7]
IOPIN 208 336 Out
FLAG 208 496 Q[6]
IOPIN 208 496 Out
FLAG 208 656 Q[5]
IOPIN 208 656 Out
FLAG 208 816 Q[4]
IOPIN 208 816 Out
FLAG 416 336 Q[3]
IOPIN 416 336 Out
FLAG 416 496 Q[2]
IOPIN 416 496 Out
FLAG 416 656 Q[1]
IOPIN 416 656 Out
FLAG 416 816 Q[0]
IOPIN 416 816 Out
FLAG 144 304 B[7]
IOPIN 144 304 In
FLAG 144 336 B[6]
IOPIN 144 336 In
FLAG 144 464 B[6]
IOPIN 144 464 In
FLAG 144 496 B[5]
IOPIN 144 496 In
FLAG 144 368 B[5]
IOPIN 144 368 In
FLAG 144 624 B[5]
IOPIN 144 624 In
FLAG 144 400 B[4]
IOPIN 144 400 In
FLAG 144 528 B[4]
IOPIN 144 528 In
FLAG 144 656 B[4]
IOPIN 144 656 In
FLAG 144 784 B[4]
IOPIN 144 784 In
FLAG 144 816 B[3]
IOPIN 144 816 In
FLAG 144 688 B[3]
IOPIN 144 688 In
FLAG 144 560 B[3]
IOPIN 144 560 In
FLAG 352 304 B[3]
IOPIN 352 304 In
FLAG 144 720 B[2]
IOPIN 144 720 In
FLAG 352 336 B[2]
IOPIN 352 336 In
FLAG 352 464 B[2]
IOPIN 352 464 In
FLAG 144 880 B[1]
IOPIN 144 880 In
FLAG 352 496 B[1]
IOPIN 352 496 In
FLAG 352 368 B[1]
IOPIN 352 368 In
FLAG 352 624 B[1]
IOPIN 352 624 In
FLAG 144 848 B[2]
IOPIN 144 848 In
FLAG 352 784 B[0]
IOPIN 352 784 In
FLAG 352 656 B[0]
IOPIN 352 656 In
FLAG 352 528 B[0]
IOPIN 352 528 In
FLAG 352 400 B[0]
IOPIN 352 400 In
FLAG 64 912 P[1:0]
IOPIN 64 912 In
FLAG 208 368 0
FLAG 416 368 0
FLAG 416 528 0
FLAG 416 688 0
FLAG 208 848 0
FLAG 208 688 0
FLAG 208 528 0
FLAG 416 848 0
SYMBOL voltage 16 560 M0
SYMATTR InstName V1
SYMATTR Value 0
SYMBOL mux-1bit-4to1 384 832 R0
SYMATTR InstName X1
SYMBOL mux-1bit-4to1 384 672 R0
SYMATTR InstName X2
SYMBOL mux-1bit-4to1 384 512 R0
SYMATTR InstName X3
SYMBOL mux-1bit-4to1 384 352 R0
SYMATTR InstName X4
SYMBOL mux-1bit-4to1 176 832 R0
SYMATTR InstName X5
SYMBOL mux-1bit-4to1 176 672 R0
SYMATTR InstName X6
SYMBOL mux-1bit-4to1 176 512 R0
SYMATTR InstName X7
SYMBOL mux-1bit-4to1 176 352 R0
SYMATTR InstName X8
