Version 4
SHEET 1 880 680
WIRE -224 128 -256 128
WIRE -176 128 -224 128
WIRE -224 192 -256 192
WIRE -176 192 -224 192
FLAG -320 128 x[4:0]
IOPIN -320 128 In
FLAG -112 160 s[4:0]
IOPIN -112 160 Out
FLAG -320 144 0
FLAG -160 32 0
FLAG -112 128 0
FLAG -224 128 _x[4:0]
FLAG -224 192 v[4:0]
SYMBOL Digital\\inv -320 64 R0
WINDOW 0 -30 32 Left 2
SYMATTR InstName A[4:0]
SYMBOL adder-5bit -144 160 R0
SYMATTR InstName X1
SYMBOL voltage -160 128 M180
WINDOW 0 24 96 Left 2
WINDOW 3 24 16 Left 2
SYMATTR InstName V1
SYMATTR Value 0
SYMBOL val-5bit -272 192 R0
WINDOW 39 0 20 Bottom 0
SYMATTR InstName X2
SYMATTR SpiceLine v=1
