Version 4
SHEET 1 880 680
FLAG -304 128 x[4:0]
IOPIN -304 128 In
FLAG -160 208 s[4:0]
IOPIN -160 208 Out
FLAG -160 128 raw
FLAG -384 208 0
SYMBOL dac-signed-5bit-fast -240 128 R0
SYMATTR InstName X1
SYMBOL bi -384 208 R270
WINDOW 0 32 40 VTop 2
WINDOW 3 -32 40 VBottom 2
SYMATTR InstName B1
SYMATTR Value I=32-V(raw)
SYMATTR Value2 Rpar=1
SYMBOL adc-5bit-fast -224 208 R0
SYMATTR InstName X2
