Version 4
SHEET 1 880 680
WIRE 112 144 96 144
WIRE 96 160 96 144
FLAG 96 240 0
FLAG 144 144 edge_clk
FLAG 96 144 clk
SYMBOL edge 128 144 R0
WINDOW 0 0 -16 Bottom 2
SYMATTR InstName X1
SYMBOL voltage 96 144 M0
WINDOW 3 24 96 Invisible 2
WINDOW 123 0 0 Left 0
WINDOW 39 0 0 Left 0
SYMATTR InstName V1
SYMATTR Value PULSE(0 1 0.5u 1n 1n 0.5u 1u)
TEXT 136 200 Left 2 !.tran 3u
